                                                                
version 2
run General-0-20170822-00:22:30-19088
attr configname General
attr datetime 20170822-00:22:30
attr experiment General
attr inifile omnetpp.ini
attr iterationvars ""
attr iterationvarsf ""
attr measurement ""
attr network mec
attr processid 19088
attr repetition 0
attr replication #0
attr resultdir results
attr runnumber 0
attr seedset 0
param **.Core*.numUdpApps 2
param **.Core*.serviceTableType "\"IPv4ServiceTable\""
param **.Core*.udpApp[*].isEdgeNode 1
param **.Core*.udpApp[0].destPort 0
param **.Core*.udpApp[0].localPort 1000
param **.Core*.udpApp[0].messageLength 0B
param **.Core*.udpApp[0].sendInterval 0s
param **.Core*.udpApp[0].typename "\"UDPEdgeApp\""
param **.Core*.udpApp[1].destAddresses "\"\""
param **.Core*.udpApp[1].destPort 0
param **.Core*.udpApp[1].localPort 1001
param **.Core*.udpApp[1].messageLength 0B
param **.Core*.udpApp[1].sendInterval 0s
param **.Core*.udpApp[1].typename "\"UDPEnoma\""
param **.Edge*.numUdpApps 2
param **.Edge*.serviceTableType "\"IPv4ServiceTable\""
param **.Edge*.udpApp[*].isEdgeNode 1
param **.Edge*.udpApp[0].destPort 0
param **.Edge*.udpApp[0].localPort 1000
param **.Edge*.udpApp[0].messageLength 0B
param **.Edge*.udpApp[0].sendInterval 0s
param **.Edge*.udpApp[0].typename "\"UDPEdgeApp\""
param **.Edge*.udpApp[1].destAddresses "\"\""
param **.Edge*.udpApp[1].destPort 0
param **.Edge*.udpApp[1].localPort 1001
param **.Edge*.udpApp[1].messageLength 0B
param **.Edge*.udpApp[1].sendInterval 0s
param **.Edge*.udpApp[1].typename "\"UDPEnoma\""
param **.Enoma.numUdpApps 1
param **.Enoma.udpApp[*].typename "\"UDPEnoma\""
param **.Enoma.udpApp[0].destPort 1001
param **.Enoma.udpApp[0].isEnoma 1
param **.Enoma.udpApp[0].localPort 1001
param **.Enoma.udpApp[0].messageLength 0B
param **.Enoma.udpApp[0].sendInterval 0s
param **.Enoma.udpApp[0].sendIntervalOptimize 0.1s
param **.RG*.numUdpApps 2
param **.RG*.serviceTableType "\"IPv4ServiceTable\""
param **.RG*.udpApp[*].isEdgeNode 1
param **.RG*.udpApp[0].destPort 0
param **.RG*.udpApp[0].localPort 1000
param **.RG*.udpApp[0].messageLength 0B
param **.RG*.udpApp[0].sendInterval 0s
param **.RG*.udpApp[0].typename "\"UDPEdgeApp\""
param **.RG*.udpApp[1].destAddresses "\"\""
param **.RG*.udpApp[1].destPort 0
param **.RG*.udpApp[1].localPort 1001
param **.RG*.udpApp[1].messageLength 0B
param **.RG*.udpApp[1].sendInterval 0s
param **.RG*.udpApp[1].typename "\"UDPEnoma\""
param **.SP*.numUdpApps 1
param **.SP*.udpApp[0].destPort 1000
param **.SP*.udpApp[0].enomaAddresses "\"Enoma\""
param **.SP*.udpApp[0].enomaPort 1001
param **.SP*.udpApp[0].isSP 1
param **.SP*.udpApp[0].localPort 1000
param **.SP*.udpApp[0].messageLength 0B
param **.SP*.udpApp[0].sendInterval 0s
param **.SP*.udpApp[0].typename "\"UDPEdgeApp\""
param **.SP[0].udpApp[0].cacheSize 5000
param **.SP[0].udpApp[0].mips 10
param **.SP[0].udpApp[0].size 10
param **.SP[1].udpApp[0].cacheSize 5000
param **.SP[1].udpApp[0].mips 20
param **.SP[1].udpApp[0].size 20
param **.SP[2].udpApp[0].cacheSize 5000
param **.SP[2].udpApp[0].mips 20
param **.SP[2].udpApp[0].size 20
param **.arp.cacheTimeout 1s
param **.autoConfigurator.interfaces "\"wlan0\""
param **.constraintAreaMaxX 600m
param **.constraintAreaMaxY 400m
param **.constraintAreaMaxZ 0m
param **.constraintAreaMinX 0m
param **.constraintAreaMinY 0m
param **.constraintAreaMinZ 0m
param **.displayEnergyStorages true
param **.hasStatus true
param **.mac.address "\"auto\""
param **.mac.maxQueueSize 14
param **.mac.rtsThresholdBytes 3000B
param **.mgmt.accessPointAddress "\"10:00:00:00:00:00\""
param **.mgmt.frameCapacity 10
param **.ue*[*].numUdpApps 1
param **.ue*[*].udpApp[*].typename "\"UDPBasicApp\""
param **.ue*[*].udpApp[0].destPort 1000
param **.ue*[*].udpApp[0].messageLength "1300 bytes"
param **.ue*[*].udpApp[0].sendInterval exponential(0.001s)
param **.ue1[*].udpApp[0].destAddresses "\"SP[0]\""
param **.ue2[*].udpApp[0].destAddresses "\"SP[1]\""
param **.ue3[*].udpApp[0].destAddresses "\"SP[2]\""
param **.wlan*.bitrate 2Mbps
param **.wlan[*].mac.cwMinBroadcast 31
param **.wlan[*].mac.cwMinData 7
param **.wlan[*].mac.retryLimit 7
param **.wlan[*].radio.receiver.sensitivity -85dBm
param **.wlan[*].radio.receiver.snirThreshold 4dB
param **.wlan[*].radio.transmitter.bandwidth 2MHz
param **.wlan[*].radio.transmitter.bitrate 2Mbps
param **.wlan[*].radio.transmitter.carrierFrequency 2.4GHz
param **.wlan[*].radio.transmitter.headerBitLength 100b
param **.wlan[*].radio.transmitter.power 2mW
param *.Core*.energyConsumer.consumptionInterval 1s
param *.Core*.energyConsumer.consumptionPerMb 0.052
param *.Core*.energyConsumer.consumptionPerMips 0.00019
param *.Core*.energyManagement.nodeShutdownCapacity 0J
param *.Core*.energyManagement.nodeStartCapacity 1000J
param *.Core*.energyManagementType "\"SimpleEpEnergyManagement\""
param *.Core*.energyStorage.nominalCapacity 1000J
param *.Core*.energyStorageType "\"SimpleEpEnergyStorage\""
param *.Edge*.energyConsumer.consumptionInterval 1s
param *.Edge*.energyConsumer.consumptionPerMb 0.052
param *.Edge*.energyConsumer.consumptionPerMips 0.00019
param *.Edge*.energyGenerator.energySinkModule "\"^.energyStorage\""
param *.Edge*.energyGenerator.generationInterval 1s
param *.Edge*.energyGenerator.powerGeneration 50000W
param *.Edge*.energyGenerator.sleepInterval 1s
param *.Edge*.energyGeneratorType "\"AlternatingEpEnergyGenerator\""
param *.Edge*.energyManagement.nodeShutdownCapacity 0J
param *.Edge*.energyManagement.nodeStartCapacity 1000J
param *.Edge*.energyManagementType "\"SimpleEpEnergyManagement\""
param *.Edge*.energyStorage.initialCapacity "uniform(0J, this.nominalCapacity)"
param *.Edge*.energyStorage.nominalCapacity 1000J
param *.Edge*.energyStorageType "\"SimpleEpEnergyStorage\""
param *.RG*.energyConsumer.consumptionInterval 1s
param *.RG*.energyConsumer.consumptionPerMb 0.052
param *.RG*.energyConsumer.consumptionPerMips 0.00019
param *.RG*.energyManagement.nodeShutdownCapacity 0J
param *.RG*.energyManagement.nodeStartCapacity 1000J
param *.RG*.energyManagementType "\"SimpleEpEnergyManagement\""
param *.RG*.energyStorage.nominalCapacity 1000J
param *.RG*.energyStorageType "\"SimpleEpEnergyStorage\""

vector 2  mec.Edge1.energyStorage  residualEnergyCapacity:vector  ETV
attr interpolationmode  linear
attr source  residualEnergyCapacityChanged
attr title  "Residual energy capacity, vector"
vector 3  mec.Edge1.energyGenerator  powerGeneration:vector  ETV
attr interpolationmode  sample-hold
attr source  powerGenerationChanged
attr title  "Power generation, vector"
vector 1  mec.Edge1.energyStorage  powerGeneration:vector  ETV
attr interpolationmode  sample-hold
attr source  powerGenerationChanged
attr title  "Power generation, vector"
vector 48  mec.Edge1.energyConsumer  powerConsumption:vector  ETV
attr interpolationmode  sample-hold
attr source  powerConsumptionChanged
attr title  "Power consumption, vector"
vector 0  mec.Edge1.energyStorage  powerConsumption:vector  ETV
attr interpolationmode  sample-hold
attr source  powerConsumptionChanged
attr title  "Power consumption, vector"
vector 213  mec.RG1.energyStorage  residualEnergyCapacity:vector  ETV
attr interpolationmode  linear
attr source  residualEnergyCapacityChanged
attr title  "Residual energy capacity, vector"
vector 282  mec.RG1.energyConsumer  powerConsumption:vector  ETV
attr interpolationmode  sample-hold
attr source  powerConsumptionChanged
attr title  "Power consumption, vector"
vector 211  mec.RG1.energyStorage  powerConsumption:vector  ETV
attr interpolationmode  sample-hold
attr source  powerConsumptionChanged
attr title  "Power consumption, vector"
vector 285  mec.Core.energyStorage  residualEnergyCapacity:vector  ETV
attr interpolationmode  linear
attr source  residualEnergyCapacityChanged
attr title  "Residual energy capacity, vector"
vector 354  mec.Core.energyConsumer  powerConsumption:vector  ETV
attr interpolationmode  sample-hold
attr source  powerConsumptionChanged
attr title  "Power consumption, vector"
vector 283  mec.Core.energyStorage  powerConsumption:vector  ETV
attr interpolationmode  sample-hold
attr source  powerConsumptionChanged
attr title  "Power consumption, vector"
vector 357  mec.RG2.energyStorage  residualEnergyCapacity:vector  ETV
attr interpolationmode  linear
attr source  residualEnergyCapacityChanged
attr title  "Residual energy capacity, vector"
vector 414  mec.RG2.energyConsumer  powerConsumption:vector  ETV
attr interpolationmode  sample-hold
attr source  powerConsumptionChanged
attr title  "Power consumption, vector"
vector 355  mec.RG2.energyStorage  powerConsumption:vector  ETV
attr interpolationmode  sample-hold
attr source  powerConsumptionChanged
attr title  "Power consumption, vector"
vector 417  mec.Edge2.energyStorage  residualEnergyCapacity:vector  ETV
attr interpolationmode  linear
attr source  residualEnergyCapacityChanged
attr title  "Residual energy capacity, vector"
vector 418  mec.Edge2.energyGenerator  powerGeneration:vector  ETV
attr interpolationmode  sample-hold
attr source  powerGenerationChanged
attr title  "Power generation, vector"
vector 416  mec.Edge2.energyStorage  powerGeneration:vector  ETV
attr interpolationmode  sample-hold
attr source  powerGenerationChanged
attr title  "Power generation, vector"
vector 463  mec.Edge2.energyConsumer  powerConsumption:vector  ETV
attr interpolationmode  sample-hold
attr source  powerConsumptionChanged
attr title  "Power consumption, vector"
vector 415  mec.Edge2.energyStorage  powerConsumption:vector  ETV
attr interpolationmode  sample-hold
attr source  powerConsumptionChanged
attr title  "Power consumption, vector"
vector 466  mec.Edge3.energyStorage  residualEnergyCapacity:vector  ETV
attr interpolationmode  linear
attr source  residualEnergyCapacityChanged
attr title  "Residual energy capacity, vector"
vector 467  mec.Edge3.energyGenerator  powerGeneration:vector  ETV
attr interpolationmode  sample-hold
attr source  powerGenerationChanged
attr title  "Power generation, vector"
vector 465  mec.Edge3.energyStorage  powerGeneration:vector  ETV
attr interpolationmode  sample-hold
attr source  powerGenerationChanged
attr title  "Power generation, vector"
vector 512  mec.Edge3.energyConsumer  powerConsumption:vector  ETV
attr interpolationmode  sample-hold
attr source  powerConsumptionChanged
attr title  "Power consumption, vector"
vector 464  mec.Edge3.energyStorage  powerConsumption:vector  ETV
attr interpolationmode  sample-hold
attr source  powerConsumptionChanged
attr title  "Power consumption, vector"
vector 667  mec.ue3[0].udpApp[0]  sentPk:vector(packetBytes)  ETV
attr interpolationmode  none
attr source  sentPk
attr title  "packets sent, vector(packetBytes)"
vector 670  mec.ue3[0].udp  sentPk:vector(packetBytes)  ETV
attr interpolationmode  none
attr source  sentPk
attr title  "packets sent, vector(packetBytes)"
vector 648  mec.ue3[0].networkLayer.arp  sentReq:vector  ETV
attr title  "ARP request sent, vector"
vector 662  mec.ue3[0].eth[0].encap  encapPk:vector(packetBytes)  ETV
attr interpolationmode  none
attr source  encapPk
attr title  "packets encapsulated, vector(packetBytes)"
vector 658  mec.ue3[0].eth[0].mac  rxPkFromHL:vector(packetBytes)  ETV
attr interpolationmode  none
attr source  rxPkFromHL
attr title  "packet bytes from higher layer, vector(packetBytes)"
vector 653  mec.ue3[0].eth[0].mac  txPk:vector(packetBytes)  ETV
attr interpolationmode  none
attr source  txPk
attr title  "packets transmitted, vector(packetBytes)"
vector 884  mec.sw3.eth[1].mac  rxPkOk:vector(packetBytes)  ETV
attr interpolationmode  none
attr source  rxPkOk
attr title  "packets received OK, vector(packetBytes)"
vector 885  mec.sw3.eth[1].mac  passedUpPk:vector(packetBytes)  ETV
attr interpolationmode  none
attr source  packetSentToUpper
attr title  "packets passed to higher layer, vector(packetBytes)"
vector 877  mec.sw3.eth[0].mac  rxPkFromHL:vector(packetBytes)  ETV
attr interpolationmode  none
attr source  rxPkFromHL
attr title  "packet bytes from higher layer, vector(packetBytes)"
vector 899  mec.sw3.eth[2].mac  rxPkFromHL:vector(packetBytes)  ETV
attr interpolationmode  none
attr source  rxPkFromHL
attr title  "packet bytes from higher layer, vector(packetBytes)"
vector 910  mec.sw3.eth[3].mac  rxPkFromHL:vector(packetBytes)  ETV
attr interpolationmode  none
attr source  rxPkFromHL
attr title  "packet bytes from higher layer, vector(packetBytes)"
vector 872  mec.sw3.eth[0].mac  txPk:vector(packetBytes)  ETV
attr interpolationmode  none
attr source  txPk
attr title  "packets transmitted, vector(packetBytes)"
vector 894  mec.sw3.eth[2].mac  txPk:vector(packetBytes)  ETV
attr interpolationmode  none
attr source  txPk
attr title  "packets transmitted, vector(packetBytes)"
vector 905  mec.sw3.eth[3].mac  txPk:vector(packetBytes)  ETV
attr interpolationmode  none
attr source  txPk
attr title  "packets transmitted, vector(packetBytes)"
vector 486  mec.Edge3.eth[1].mac  rxPkOk:vector(packetBytes)  ETV
attr interpolationmode  none
attr source  rxPkOk
attr title  "packets received OK, vector(packetBytes)"
vector 487  mec.Edge3.eth[1].mac  passedUpPk:vector(packetBytes)  ETV
attr interpolationmode  none
attr source  packetSentToUpper
attr title  "packets passed to higher layer, vector(packetBytes)"
vector 681  mec.ue3[1].eth[0].mac  rxPkOk:vector(packetBytes)  ETV
attr interpolationmode  none
attr source  rxPkOk
attr title  "packets received OK, vector(packetBytes)"
vector 682  mec.ue3[1].eth[0].mac  passedUpPk:vector(packetBytes)  ETV
attr interpolationmode  none
attr source  packetSentToUpper
attr title  "packets passed to higher layer, vector(packetBytes)"
vector 708  mec.ue3[2].eth[0].mac  rxPkOk:vector(packetBytes)  ETV
attr interpolationmode  none
attr source  rxPkOk
attr title  "packets received OK, vector(packetBytes)"
vector 709  mec.ue3[2].eth[0].mac  passedUpPk:vector(packetBytes)  ETV
attr interpolationmode  none
attr source  packetSentToUpper
attr title  "packets passed to higher layer, vector(packetBytes)"
vector 495  mec.Edge3.eth[1].encap  decapPk:vector(packetBytes)  ETV
attr interpolationmode  none
attr source  decapPk
attr title  "packets decapsulated, vector(packetBytes)"
vector 690  mec.ue3[1].eth[0].encap  decapPk:vector(packetBytes)  ETV
attr interpolationmode  none
attr source  decapPk
attr title  "packets decapsulated, vector(packetBytes)"
vector 717  mec.ue3[2].eth[0].encap  decapPk:vector(packetBytes)  ETV
attr interpolationmode  none
attr source  decapPk
attr title  "packets decapsulated, vector(packetBytes)"
vector 469  mec.Edge3.networkLayer.arp  sentReply:vector  ETV
attr title  "ARP replies sent, vector"
vector 494  mec.Edge3.eth[1].encap  encapPk:vector(packetBytes)  ETV
attr interpolationmode  none
attr source  encapPk
attr title  "packets encapsulated, vector(packetBytes)"
vector 490  mec.Edge3.eth[1].mac  rxPkFromHL:vector(packetBytes)  ETV
attr interpolationmode  none
attr source  rxPkFromHL
attr title  "packet bytes from higher layer, vector(packetBytes)"
vector 485  mec.Edge3.eth[1].mac  txPk:vector(packetBytes)  ETV
attr interpolationmode  none
attr source  txPk
attr title  "packets transmitted, vector(packetBytes)"
vector 873  mec.sw3.eth[0].mac  rxPkOk:vector(packetBytes)  ETV
attr interpolationmode  none
attr source  rxPkOk
attr title  "packets received OK, vector(packetBytes)"
vector 874  mec.sw3.eth[0].mac  passedUpPk:vector(packetBytes)  ETV
attr interpolationmode  none
attr source  packetSentToUpper
attr title  "packets passed to higher layer, vector(packetBytes)"
vector 888  mec.sw3.eth[1].mac  rxPkFromHL:vector(packetBytes)  ETV
attr interpolationmode  none
attr source  rxPkFromHL
attr title  "packet bytes from higher layer, vector(packetBytes)"
vector 883  mec.sw3.eth[1].mac  txPk:vector(packetBytes)  ETV
attr interpolationmode  none
attr source  txPk
attr title  "packets transmitted, vector(packetBytes)"
vector 654  mec.ue3[0].eth[0].mac  rxPkOk:vector(packetBytes)  ETV
attr interpolationmode  none
attr source  rxPkOk
attr title  "packets received OK, vector(packetBytes)"
vector 655  mec.ue3[0].eth[0].mac  passedUpPk:vector(packetBytes)  ETV
attr interpolationmode  none
attr source  packetSentToUpper
attr title  "packets passed to higher layer, vector(packetBytes)"
vector 663  mec.ue3[0].eth[0].encap  decapPk:vector(packetBytes)  ETV
attr interpolationmode  none
attr source  decapPk
attr title  "packets decapsulated, vector(packetBytes)"
vector 613  mec.ue2[0].udpApp[0]  sentPk:vector(packetBytes)  ETV
attr interpolationmode  none
attr source  sentPk
attr title  "packets sent, vector(packetBytes)"
vector 616  mec.ue2[0].udp  sentPk:vector(packetBytes)  ETV
attr interpolationmode  none
attr source  sentPk
attr title  "packets sent, vector(packetBytes)"
vector 594  mec.ue2[0].networkLayer.arp  sentReq:vector  ETV
attr title  "ARP request sent, vector"
vector 608  mec.ue2[0].eth[0].encap  encapPk:vector(packetBytes)  ETV
attr interpolationmode  none
attr source  encapPk
attr title  "packets encapsulated, vector(packetBytes)"
vector 604  mec.ue2[0].eth[0].mac  rxPkFromHL:vector(packetBytes)  ETV
attr interpolationmode  none
attr source  rxPkFromHL
attr title  "packet bytes from higher layer, vector(packetBytes)"
vector 468  mec.Edge3.networkLayer.arp  sentReq:vector  ETV
attr title  "ARP request sent, vector"
vector 482  mec.Edge3.eth[0].encap  encapPk:vector(packetBytes)  ETV
attr interpolationmode  none
attr source  encapPk
attr title  "packets encapsulated, vector(packetBytes)"
vector 478  mec.Edge3.eth[0].mac  rxPkFromHL:vector(packetBytes)  ETV
attr interpolationmode  none
attr source  rxPkFromHL
attr title  "packet bytes from higher layer, vector(packetBytes)"
vector 599  mec.ue2[0].eth[0].mac  txPk:vector(packetBytes)  ETV
attr interpolationmode  none
attr source  txPk
attr title  "packets transmitted, vector(packetBytes)"
vector 851  mec.sw2.eth[1].mac  rxPkOk:vector(packetBytes)  ETV
attr interpolationmode  none
attr source  rxPkOk
attr title  "packets received OK, vector(packetBytes)"
vector 852  mec.sw2.eth[1].mac  passedUpPk:vector(packetBytes)  ETV
attr interpolationmode  none
attr source  packetSentToUpper
attr title  "packets passed to higher layer, vector(packetBytes)"
vector 844  mec.sw2.eth[0].mac  rxPkFromHL:vector(packetBytes)  ETV
attr interpolationmode  none
attr source  rxPkFromHL
attr title  "packet bytes from higher layer, vector(packetBytes)"
vector 866  mec.sw2.eth[2].mac  rxPkFromHL:vector(packetBytes)  ETV
attr interpolationmode  none
attr source  rxPkFromHL
attr title  "packet bytes from higher layer, vector(packetBytes)"
vector 473  mec.Edge3.eth[0].mac  txPk:vector(packetBytes)  ETV
attr interpolationmode  none
attr source  txPk
attr title  "packets transmitted, vector(packetBytes)"
vector 388  mec.RG2.eth[2].mac  rxPkOk:vector(packetBytes)  ETV
attr interpolationmode  none
attr source  rxPkOk
attr title  "packets received OK, vector(packetBytes)"
vector 389  mec.RG2.eth[2].mac  passedUpPk:vector(packetBytes)  ETV
attr interpolationmode  none
attr source  packetSentToUpper
attr title  "packets passed to higher layer, vector(packetBytes)"
vector 397  mec.RG2.eth[2].encap  decapPk:vector(packetBytes)  ETV
attr interpolationmode  none
attr source  decapPk
attr title  "packets decapsulated, vector(packetBytes)"
vector 359  mec.RG2.networkLayer.arp  sentReply:vector  ETV
attr title  "ARP replies sent, vector"
vector 396  mec.RG2.eth[2].encap  encapPk:vector(packetBytes)  ETV
attr interpolationmode  none
attr source  encapPk
attr title  "packets encapsulated, vector(packetBytes)"
vector 392  mec.RG2.eth[2].mac  rxPkFromHL:vector(packetBytes)  ETV
attr interpolationmode  none
attr source  rxPkFromHL
attr title  "packet bytes from higher layer, vector(packetBytes)"
vector 839  mec.sw2.eth[0].mac  txPk:vector(packetBytes)  ETV
attr interpolationmode  none
attr source  txPk
attr title  "packets transmitted, vector(packetBytes)"
vector 861  mec.sw2.eth[2].mac  txPk:vector(packetBytes)  ETV
attr interpolationmode  none
attr source  txPk
attr title  "packets transmitted, vector(packetBytes)"
vector 437  mec.Edge2.eth[1].mac  rxPkOk:vector(packetBytes)  ETV
attr interpolationmode  none
attr source  rxPkOk
attr title  "packets received OK, vector(packetBytes)"
vector 438  mec.Edge2.eth[1].mac  passedUpPk:vector(packetBytes)  ETV
attr interpolationmode  none
attr source  packetSentToUpper
attr title  "packets passed to higher layer, vector(packetBytes)"
vector 627  mec.ue2[1].eth[0].mac  rxPkOk:vector(packetBytes)  ETV
attr interpolationmode  none
attr source  rxPkOk
attr title  "packets received OK, vector(packetBytes)"
vector 628  mec.ue2[1].eth[0].mac  passedUpPk:vector(packetBytes)  ETV
attr interpolationmode  none
attr source  packetSentToUpper
attr title  "packets passed to higher layer, vector(packetBytes)"
vector 446  mec.Edge2.eth[1].encap  decapPk:vector(packetBytes)  ETV
attr interpolationmode  none
attr source  decapPk
attr title  "packets decapsulated, vector(packetBytes)"
vector 636  mec.ue2[1].eth[0].encap  decapPk:vector(packetBytes)  ETV
attr interpolationmode  none
attr source  decapPk
attr title  "packets decapsulated, vector(packetBytes)"
vector 420  mec.Edge2.networkLayer.arp  sentReply:vector  ETV
attr title  "ARP replies sent, vector"
vector 445  mec.Edge2.eth[1].encap  encapPk:vector(packetBytes)  ETV
attr interpolationmode  none
attr source  encapPk
attr title  "packets encapsulated, vector(packetBytes)"
vector 441  mec.Edge2.eth[1].mac  rxPkFromHL:vector(packetBytes)  ETV
attr interpolationmode  none
attr source  rxPkFromHL
attr title  "packet bytes from higher layer, vector(packetBytes)"
vector 387  mec.RG2.eth[2].mac  txPk:vector(packetBytes)  ETV
attr interpolationmode  none
attr source  txPk
attr title  "packets transmitted, vector(packetBytes)"
vector 474  mec.Edge3.eth[0].mac  rxPkOk:vector(packetBytes)  ETV
attr interpolationmode  none
attr source  rxPkOk
attr title  "packets received OK, vector(packetBytes)"
vector 475  mec.Edge3.eth[0].mac  passedUpPk:vector(packetBytes)  ETV
attr interpolationmode  none
attr source  packetSentToUpper
attr title  "packets passed to higher layer, vector(packetBytes)"
vector 483  mec.Edge3.eth[0].encap  decapPk:vector(packetBytes)  ETV
attr interpolationmode  none
attr source  decapPk
attr title  "packets decapsulated, vector(packetBytes)"
vector 436  mec.Edge2.eth[1].mac  txPk:vector(packetBytes)  ETV
attr interpolationmode  none
attr source  txPk
attr title  "packets transmitted, vector(packetBytes)"
vector 840  mec.sw2.eth[0].mac  rxPkOk:vector(packetBytes)  ETV
attr interpolationmode  none
attr source  rxPkOk
attr title  "packets received OK, vector(packetBytes)"
vector 841  mec.sw2.eth[0].mac  passedUpPk:vector(packetBytes)  ETV
attr interpolationmode  none
attr source  packetSentToUpper
attr title  "packets passed to higher layer, vector(packetBytes)"
vector 855  mec.sw2.eth[1].mac  rxPkFromHL:vector(packetBytes)  ETV
attr interpolationmode  none
attr source  rxPkFromHL
attr title  "packet bytes from higher layer, vector(packetBytes)"
vector 850  mec.sw2.eth[1].mac  txPk:vector(packetBytes)  ETV
attr interpolationmode  none
attr source  txPk
attr title  "packets transmitted, vector(packetBytes)"
vector 600  mec.ue2[0].eth[0].mac  rxPkOk:vector(packetBytes)  ETV
attr interpolationmode  none
attr source  rxPkOk
attr title  "packets received OK, vector(packetBytes)"
vector 601  mec.ue2[0].eth[0].mac  passedUpPk:vector(packetBytes)  ETV
attr interpolationmode  none
attr source  packetSentToUpper
attr title  "packets passed to higher layer, vector(packetBytes)"
vector 609  mec.ue2[0].eth[0].encap  decapPk:vector(packetBytes)  ETV
attr interpolationmode  none
attr source  decapPk
attr title  "packets decapsulated, vector(packetBytes)"
vector 358  mec.RG2.networkLayer.arp  sentReq:vector  ETV
attr title  "ARP request sent, vector"
vector 372  mec.RG2.eth[0].encap  encapPk:vector(packetBytes)  ETV
attr interpolationmode  none
attr source  encapPk
attr title  "packets encapsulated, vector(packetBytes)"
vector 368  mec.RG2.eth[0].mac  rxPkFromHL:vector(packetBytes)  ETV
attr interpolationmode  none
attr source  rxPkFromHL
attr title  "packet bytes from higher layer, vector(packetBytes)"
vector 363  mec.RG2.eth[0].mac  txPk:vector(packetBytes)  ETV
attr interpolationmode  none
attr source  txPk
attr title  "packets transmitted, vector(packetBytes)"
vector 328  mec.Core.eth[3].mac  rxPkOk:vector(packetBytes)  ETV
attr interpolationmode  none
attr source  rxPkOk
attr title  "packets received OK, vector(packetBytes)"
vector 329  mec.Core.eth[3].mac  passedUpPk:vector(packetBytes)  ETV
attr interpolationmode  none
attr source  packetSentToUpper
attr title  "packets passed to higher layer, vector(packetBytes)"
vector 337  mec.Core.eth[3].encap  decapPk:vector(packetBytes)  ETV
attr interpolationmode  none
attr source  decapPk
attr title  "packets decapsulated, vector(packetBytes)"
vector 287  mec.Core.networkLayer.arp  sentReply:vector  ETV
attr title  "ARP replies sent, vector"
vector 336  mec.Core.eth[3].encap  encapPk:vector(packetBytes)  ETV
attr interpolationmode  none
attr source  encapPk
attr title  "packets encapsulated, vector(packetBytes)"
vector 332  mec.Core.eth[3].mac  rxPkFromHL:vector(packetBytes)  ETV
attr interpolationmode  none
attr source  rxPkFromHL
attr title  "packet bytes from higher layer, vector(packetBytes)"
vector 327  mec.Core.eth[3].mac  txPk:vector(packetBytes)  ETV
attr interpolationmode  none
attr source  txPk
attr title  "packets transmitted, vector(packetBytes)"
vector 364  mec.RG2.eth[0].mac  rxPkOk:vector(packetBytes)  ETV
attr interpolationmode  none
attr source  rxPkOk
attr title  "packets received OK, vector(packetBytes)"
vector 365  mec.RG2.eth[0].mac  passedUpPk:vector(packetBytes)  ETV
attr interpolationmode  none
attr source  packetSentToUpper
attr title  "packets passed to higher layer, vector(packetBytes)"
vector 373  mec.RG2.eth[0].encap  decapPk:vector(packetBytes)  ETV
attr interpolationmode  none
attr source  decapPk
attr title  "packets decapsulated, vector(packetBytes)"
vector 559  mec.ue1[1].udpApp[0]  sentPk:vector(packetBytes)  ETV
attr interpolationmode  none
attr source  sentPk
attr title  "packets sent, vector(packetBytes)"
vector 562  mec.ue1[1].udp  sentPk:vector(packetBytes)  ETV
attr interpolationmode  none
attr source  sentPk
attr title  "packets sent, vector(packetBytes)"
vector 540  mec.ue1[1].networkLayer.arp  sentReq:vector  ETV
attr title  "ARP request sent, vector"
vector 554  mec.ue1[1].eth[0].encap  encapPk:vector(packetBytes)  ETV
attr interpolationmode  none
attr source  encapPk
attr title  "packets encapsulated, vector(packetBytes)"
vector 550  mec.ue1[1].eth[0].mac  rxPkFromHL:vector(packetBytes)  ETV
attr interpolationmode  none
attr source  rxPkFromHL
attr title  "packet bytes from higher layer, vector(packetBytes)"
vector 545  mec.ue1[1].eth[0].mac  txPk:vector(packetBytes)  ETV
attr interpolationmode  none
attr source  txPk
attr title  "packets transmitted, vector(packetBytes)"
vector 818  mec.sw1.eth[2].mac  rxPkOk:vector(packetBytes)  ETV
attr interpolationmode  none
attr source  rxPkOk
attr title  "packets received OK, vector(packetBytes)"
vector 819  mec.sw1.eth[2].mac  passedUpPk:vector(packetBytes)  ETV
attr interpolationmode  none
attr source  packetSentToUpper
attr title  "packets passed to higher layer, vector(packetBytes)"
vector 800  mec.sw1.eth[0].mac  rxPkFromHL:vector(packetBytes)  ETV
attr interpolationmode  none
attr source  rxPkFromHL
attr title  "packet bytes from higher layer, vector(packetBytes)"
vector 811  mec.sw1.eth[1].mac  rxPkFromHL:vector(packetBytes)  ETV
attr interpolationmode  none
attr source  rxPkFromHL
attr title  "packet bytes from higher layer, vector(packetBytes)"
vector 833  mec.sw1.eth[3].mac  rxPkFromHL:vector(packetBytes)  ETV
attr interpolationmode  none
attr source  rxPkFromHL
attr title  "packet bytes from higher layer, vector(packetBytes)"
vector 795  mec.sw1.eth[0].mac  txPk:vector(packetBytes)  ETV
attr interpolationmode  none
attr source  txPk
attr title  "packets transmitted, vector(packetBytes)"
vector 806  mec.sw1.eth[1].mac  txPk:vector(packetBytes)  ETV
attr interpolationmode  none
attr source  txPk
attr title  "packets transmitted, vector(packetBytes)"
vector 828  mec.sw1.eth[3].mac  txPk:vector(packetBytes)  ETV
attr interpolationmode  none
attr source  txPk
attr title  "packets transmitted, vector(packetBytes)"
vector 22  mec.Edge1.eth[1].mac  rxPkOk:vector(packetBytes)  ETV
attr interpolationmode  none
attr source  rxPkOk
attr title  "packets received OK, vector(packetBytes)"
vector 23  mec.Edge1.eth[1].mac  passedUpPk:vector(packetBytes)  ETV
attr interpolationmode  none
attr source  packetSentToUpper
attr title  "packets passed to higher layer, vector(packetBytes)"
vector 519  mec.ue1[0].eth[0].mac  rxPkOk:vector(packetBytes)  ETV
attr interpolationmode  none
attr source  rxPkOk
attr title  "packets received OK, vector(packetBytes)"
vector 520  mec.ue1[0].eth[0].mac  passedUpPk:vector(packetBytes)  ETV
attr interpolationmode  none
attr source  packetSentToUpper
attr title  "packets passed to higher layer, vector(packetBytes)"
vector 573  mec.ue1[2].eth[0].mac  rxPkOk:vector(packetBytes)  ETV
attr interpolationmode  none
attr source  rxPkOk
attr title  "packets received OK, vector(packetBytes)"
vector 574  mec.ue1[2].eth[0].mac  passedUpPk:vector(packetBytes)  ETV
attr interpolationmode  none
attr source  packetSentToUpper
attr title  "packets passed to higher layer, vector(packetBytes)"
vector 31  mec.Edge1.eth[1].encap  decapPk:vector(packetBytes)  ETV
attr interpolationmode  none
attr source  decapPk
attr title  "packets decapsulated, vector(packetBytes)"
vector 528  mec.ue1[0].eth[0].encap  decapPk:vector(packetBytes)  ETV
attr interpolationmode  none
attr source  decapPk
attr title  "packets decapsulated, vector(packetBytes)"
vector 582  mec.ue1[2].eth[0].encap  decapPk:vector(packetBytes)  ETV
attr interpolationmode  none
attr source  decapPk
attr title  "packets decapsulated, vector(packetBytes)"
vector 5  mec.Edge1.networkLayer.arp  sentReply:vector  ETV
attr title  "ARP replies sent, vector"
vector 30  mec.Edge1.eth[1].encap  encapPk:vector(packetBytes)  ETV
attr interpolationmode  none
attr source  encapPk
attr title  "packets encapsulated, vector(packetBytes)"
vector 26  mec.Edge1.eth[1].mac  rxPkFromHL:vector(packetBytes)  ETV
attr interpolationmode  none
attr source  rxPkFromHL
attr title  "packet bytes from higher layer, vector(packetBytes)"
vector 21  mec.Edge1.eth[1].mac  txPk:vector(packetBytes)  ETV
attr interpolationmode  none
attr source  txPk
attr title  "packets transmitted, vector(packetBytes)"
vector 796  mec.sw1.eth[0].mac  rxPkOk:vector(packetBytes)  ETV
attr interpolationmode  none
attr source  rxPkOk
attr title  "packets received OK, vector(packetBytes)"
vector 797  mec.sw1.eth[0].mac  passedUpPk:vector(packetBytes)  ETV
attr interpolationmode  none
attr source  packetSentToUpper
attr title  "packets passed to higher layer, vector(packetBytes)"
vector 822  mec.sw1.eth[2].mac  rxPkFromHL:vector(packetBytes)  ETV
attr interpolationmode  none
attr source  rxPkFromHL
attr title  "packet bytes from higher layer, vector(packetBytes)"
vector 817  mec.sw1.eth[2].mac  txPk:vector(packetBytes)  ETV
attr interpolationmode  none
attr source  txPk
attr title  "packets transmitted, vector(packetBytes)"
vector 546  mec.ue1[1].eth[0].mac  rxPkOk:vector(packetBytes)  ETV
attr interpolationmode  none
attr source  rxPkOk
attr title  "packets received OK, vector(packetBytes)"
vector 547  mec.ue1[1].eth[0].mac  passedUpPk:vector(packetBytes)  ETV
attr interpolationmode  none
attr source  packetSentToUpper
attr title  "packets passed to higher layer, vector(packetBytes)"
vector 555  mec.ue1[1].eth[0].encap  decapPk:vector(packetBytes)  ETV
attr interpolationmode  none
attr source  decapPk
attr title  "packets decapsulated, vector(packetBytes)"
vector 694  mec.ue3[1].udpApp[0]  sentPk:vector(packetBytes)  ETV
attr interpolationmode  none
attr source  sentPk
attr title  "packets sent, vector(packetBytes)"
vector 697  mec.ue3[1].udp  sentPk:vector(packetBytes)  ETV
attr interpolationmode  none
attr source  sentPk
attr title  "packets sent, vector(packetBytes)"
vector 675  mec.ue3[1].networkLayer.arp  sentReq:vector  ETV
attr title  "ARP request sent, vector"
vector 689  mec.ue3[1].eth[0].encap  encapPk:vector(packetBytes)  ETV
attr interpolationmode  none
attr source  encapPk
attr title  "packets encapsulated, vector(packetBytes)"
vector 685  mec.ue3[1].eth[0].mac  rxPkFromHL:vector(packetBytes)  ETV
attr interpolationmode  none
attr source  rxPkFromHL
attr title  "packet bytes from higher layer, vector(packetBytes)"
vector 680  mec.ue3[1].eth[0].mac  txPk:vector(packetBytes)  ETV
attr interpolationmode  none
attr source  txPk
attr title  "packets transmitted, vector(packetBytes)"
vector 895  mec.sw3.eth[2].mac  rxPkOk:vector(packetBytes)  ETV
attr interpolationmode  none
attr source  rxPkOk
attr title  "packets received OK, vector(packetBytes)"
vector 896  mec.sw3.eth[2].mac  passedUpPk:vector(packetBytes)  ETV
attr interpolationmode  none
attr source  packetSentToUpper
attr title  "packets passed to higher layer, vector(packetBytes)"
vector 419  mec.Edge2.networkLayer.arp  sentReq:vector  ETV
attr title  "ARP request sent, vector"
vector 433  mec.Edge2.eth[0].encap  encapPk:vector(packetBytes)  ETV
attr interpolationmode  none
attr source  encapPk
attr title  "packets encapsulated, vector(packetBytes)"
vector 429  mec.Edge2.eth[0].mac  rxPkFromHL:vector(packetBytes)  ETV
attr interpolationmode  none
attr source  rxPkFromHL
attr title  "packet bytes from higher layer, vector(packetBytes)"
vector 286  mec.Core.networkLayer.arp  sentReq:vector  ETV
attr title  "ARP request sent, vector"
vector 312  mec.Core.eth[1].encap  encapPk:vector(packetBytes)  ETV
attr interpolationmode  none
attr source  encapPk
attr title  "packets encapsulated, vector(packetBytes)"
vector 308  mec.Core.eth[1].mac  rxPkFromHL:vector(packetBytes)  ETV
attr interpolationmode  none
attr source  rxPkFromHL
attr title  "packet bytes from higher layer, vector(packetBytes)"
vector 424  mec.Edge2.eth[0].mac  txPk:vector(packetBytes)  ETV
attr interpolationmode  none
attr source  txPk
attr title  "packets transmitted, vector(packetBytes)"
vector 232  mec.RG1.eth[1].mac  rxPkOk:vector(packetBytes)  ETV
attr interpolationmode  none
attr source  rxPkOk
attr title  "packets received OK, vector(packetBytes)"
vector 233  mec.RG1.eth[1].mac  passedUpPk:vector(packetBytes)  ETV
attr interpolationmode  none
attr source  packetSentToUpper
attr title  "packets passed to higher layer, vector(packetBytes)"
vector 241  mec.RG1.eth[1].encap  decapPk:vector(packetBytes)  ETV
attr interpolationmode  none
attr source  decapPk
attr title  "packets decapsulated, vector(packetBytes)"
vector 215  mec.RG1.networkLayer.arp  sentReply:vector  ETV
attr title  "ARP replies sent, vector"
vector 240  mec.RG1.eth[1].encap  encapPk:vector(packetBytes)  ETV
attr interpolationmode  none
attr source  encapPk
attr title  "packets encapsulated, vector(packetBytes)"
vector 236  mec.RG1.eth[1].mac  rxPkFromHL:vector(packetBytes)  ETV
attr interpolationmode  none
attr source  rxPkFromHL
attr title  "packet bytes from higher layer, vector(packetBytes)"
vector 303  mec.Core.eth[1].mac  txPk:vector(packetBytes)  ETV
attr interpolationmode  none
attr source  txPk
attr title  "packets transmitted, vector(packetBytes)"
vector 730  mec.Sw.eth[0].mac  rxPkOk:vector(packetBytes)  ETV
attr interpolationmode  none
attr source  rxPkOk
attr title  "packets received OK, vector(packetBytes)"
vector 731  mec.Sw.eth[0].mac  passedUpPk:vector(packetBytes)  ETV
attr interpolationmode  none
attr source  packetSentToUpper
attr title  "packets passed to higher layer, vector(packetBytes)"
vector 745  mec.Sw.eth[1].mac  rxPkFromHL:vector(packetBytes)  ETV
attr interpolationmode  none
attr source  rxPkFromHL
attr title  "packet bytes from higher layer, vector(packetBytes)"
vector 756  mec.Sw.eth[2].mac  rxPkFromHL:vector(packetBytes)  ETV
attr interpolationmode  none
attr source  rxPkFromHL
attr title  "packet bytes from higher layer, vector(packetBytes)"
vector 767  mec.Sw.eth[3].mac  rxPkFromHL:vector(packetBytes)  ETV
attr interpolationmode  none
attr source  rxPkFromHL
attr title  "packet bytes from higher layer, vector(packetBytes)"
vector 778  mec.Sw.eth[4].mac  rxPkFromHL:vector(packetBytes)  ETV
attr interpolationmode  none
attr source  rxPkFromHL
attr title  "packet bytes from higher layer, vector(packetBytes)"
vector 789  mec.Sw.eth[5].mac  rxPkFromHL:vector(packetBytes)  ETV
attr interpolationmode  none
attr source  rxPkFromHL
attr title  "packet bytes from higher layer, vector(packetBytes)"
vector 721  mec.ue3[2].udpApp[0]  sentPk:vector(packetBytes)  ETV
attr interpolationmode  none
attr source  sentPk
attr title  "packets sent, vector(packetBytes)"
vector 724  mec.ue3[2].udp  sentPk:vector(packetBytes)  ETV
attr interpolationmode  none
attr source  sentPk
attr title  "packets sent, vector(packetBytes)"
vector 702  mec.ue3[2].networkLayer.arp  sentReq:vector  ETV
attr title  "ARP request sent, vector"
vector 716  mec.ue3[2].eth[0].encap  encapPk:vector(packetBytes)  ETV
attr interpolationmode  none
attr source  encapPk
attr title  "packets encapsulated, vector(packetBytes)"
vector 712  mec.ue3[2].eth[0].mac  rxPkFromHL:vector(packetBytes)  ETV
attr interpolationmode  none
attr source  rxPkFromHL
attr title  "packet bytes from higher layer, vector(packetBytes)"
vector 231  mec.RG1.eth[1].mac  txPk:vector(packetBytes)  ETV
attr interpolationmode  none
attr source  txPk
attr title  "packets transmitted, vector(packetBytes)"
vector 425  mec.Edge2.eth[0].mac  rxPkOk:vector(packetBytes)  ETV
attr interpolationmode  none
attr source  rxPkOk
attr title  "packets received OK, vector(packetBytes)"
vector 426  mec.Edge2.eth[0].mac  passedUpPk:vector(packetBytes)  ETV
attr interpolationmode  none
attr source  packetSentToUpper
attr title  "packets passed to higher layer, vector(packetBytes)"
vector 434  mec.Edge2.eth[0].encap  decapPk:vector(packetBytes)  ETV
attr interpolationmode  none
attr source  decapPk
attr title  "packets decapsulated, vector(packetBytes)"
vector 740  mec.Sw.eth[1].mac  txPk:vector(packetBytes)  ETV
attr interpolationmode  none
attr source  txPk
attr title  "packets transmitted, vector(packetBytes)"
vector 751  mec.Sw.eth[2].mac  txPk:vector(packetBytes)  ETV
attr interpolationmode  none
attr source  txPk
attr title  "packets transmitted, vector(packetBytes)"
vector 762  mec.Sw.eth[3].mac  txPk:vector(packetBytes)  ETV
attr interpolationmode  none
attr source  txPk
attr title  "packets transmitted, vector(packetBytes)"
vector 773  mec.Sw.eth[4].mac  txPk:vector(packetBytes)  ETV
attr interpolationmode  none
attr source  txPk
attr title  "packets transmitted, vector(packetBytes)"
vector 784  mec.Sw.eth[5].mac  txPk:vector(packetBytes)  ETV
attr interpolationmode  none
attr source  txPk
attr title  "packets transmitted, vector(packetBytes)"
vector 55  mec.SP[0].eth[0].mac  rxPkOk:vector(packetBytes)  ETV
attr interpolationmode  none
attr source  rxPkOk
attr title  "packets received OK, vector(packetBytes)"
vector 56  mec.SP[0].eth[0].mac  passedUpPk:vector(packetBytes)  ETV
attr interpolationmode  none
attr source  packetSentToUpper
attr title  "packets passed to higher layer, vector(packetBytes)"
vector 82  mec.SP[1].eth[0].mac  rxPkOk:vector(packetBytes)  ETV
attr interpolationmode  none
attr source  rxPkOk
attr title  "packets received OK, vector(packetBytes)"
vector 83  mec.SP[1].eth[0].mac  passedUpPk:vector(packetBytes)  ETV
attr interpolationmode  none
attr source  packetSentToUpper
attr title  "packets passed to higher layer, vector(packetBytes)"
vector 109  mec.SP[2].eth[0].mac  rxPkOk:vector(packetBytes)  ETV
attr interpolationmode  none
attr source  rxPkOk
attr title  "packets received OK, vector(packetBytes)"
vector 110  mec.SP[2].eth[0].mac  passedUpPk:vector(packetBytes)  ETV
attr interpolationmode  none
attr source  packetSentToUpper
attr title  "packets passed to higher layer, vector(packetBytes)"
vector 136  mec.SP[3].eth[0].mac  rxPkOk:vector(packetBytes)  ETV
attr interpolationmode  none
attr source  rxPkOk
attr title  "packets received OK, vector(packetBytes)"
vector 137  mec.SP[3].eth[0].mac  passedUpPk:vector(packetBytes)  ETV
attr interpolationmode  none
attr source  packetSentToUpper
attr title  "packets passed to higher layer, vector(packetBytes)"
vector 163  mec.SP[4].eth[0].mac  rxPkOk:vector(packetBytes)  ETV
attr interpolationmode  none
attr source  rxPkOk
attr title  "packets received OK, vector(packetBytes)"
vector 164  mec.SP[4].eth[0].mac  passedUpPk:vector(packetBytes)  ETV
attr interpolationmode  none
attr source  packetSentToUpper
attr title  "packets passed to higher layer, vector(packetBytes)"
vector 64  mec.SP[0].eth[0].encap  decapPk:vector(packetBytes)  ETV
attr interpolationmode  none
attr source  decapPk
attr title  "packets decapsulated, vector(packetBytes)"
vector 91  mec.SP[1].eth[0].encap  decapPk:vector(packetBytes)  ETV
attr interpolationmode  none
attr source  decapPk
attr title  "packets decapsulated, vector(packetBytes)"
vector 118  mec.SP[2].eth[0].encap  decapPk:vector(packetBytes)  ETV
attr interpolationmode  none
attr source  decapPk
attr title  "packets decapsulated, vector(packetBytes)"
vector 145  mec.SP[3].eth[0].encap  decapPk:vector(packetBytes)  ETV
attr interpolationmode  none
attr source  decapPk
attr title  "packets decapsulated, vector(packetBytes)"
vector 172  mec.SP[4].eth[0].encap  decapPk:vector(packetBytes)  ETV
attr interpolationmode  none
attr source  decapPk
attr title  "packets decapsulated, vector(packetBytes)"
vector 104  mec.SP[2].networkLayer.arp  sentReply:vector  ETV
attr title  "ARP replies sent, vector"
vector 117  mec.SP[2].eth[0].encap  encapPk:vector(packetBytes)  ETV
attr interpolationmode  none
attr source  encapPk
attr title  "packets encapsulated, vector(packetBytes)"
vector 113  mec.SP[2].eth[0].mac  rxPkFromHL:vector(packetBytes)  ETV
attr interpolationmode  none
attr source  rxPkFromHL
attr title  "packet bytes from higher layer, vector(packetBytes)"
vector 707  mec.ue3[2].eth[0].mac  txPk:vector(packetBytes)  ETV
attr interpolationmode  none
attr source  txPk
attr title  "packets transmitted, vector(packetBytes)"
vector 906  mec.sw3.eth[3].mac  rxPkOk:vector(packetBytes)  ETV
attr interpolationmode  none
attr source  rxPkOk
attr title  "packets received OK, vector(packetBytes)"
vector 907  mec.sw3.eth[3].mac  passedUpPk:vector(packetBytes)  ETV
attr interpolationmode  none
attr source  packetSentToUpper
attr title  "packets passed to higher layer, vector(packetBytes)"
vector 108  mec.SP[2].eth[0].mac  txPk:vector(packetBytes)  ETV
attr interpolationmode  none
attr source  txPk
attr title  "packets transmitted, vector(packetBytes)"
vector 763  mec.Sw.eth[3].mac  rxPkOk:vector(packetBytes)  ETV
attr interpolationmode  none
attr source  rxPkOk
attr title  "packets received OK, vector(packetBytes)"
vector 764  mec.Sw.eth[3].mac  passedUpPk:vector(packetBytes)  ETV
attr interpolationmode  none
attr source  packetSentToUpper
attr title  "packets passed to higher layer, vector(packetBytes)"
vector 734  mec.Sw.eth[0].mac  rxPkFromHL:vector(packetBytes)  ETV
attr interpolationmode  none
attr source  rxPkFromHL
attr title  "packet bytes from higher layer, vector(packetBytes)"
vector 729  mec.Sw.eth[0].mac  txPk:vector(packetBytes)  ETV
attr interpolationmode  none
attr source  txPk
attr title  "packets transmitted, vector(packetBytes)"
vector 304  mec.Core.eth[1].mac  rxPkOk:vector(packetBytes)  ETV
attr interpolationmode  none
attr source  rxPkOk
attr title  "packets received OK, vector(packetBytes)"
vector 305  mec.Core.eth[1].mac  passedUpPk:vector(packetBytes)  ETV
attr interpolationmode  none
attr source  packetSentToUpper
attr title  "packets passed to higher layer, vector(packetBytes)"
vector 313  mec.Core.eth[1].encap  decapPk:vector(packetBytes)  ETV
attr interpolationmode  none
attr source  decapPk
attr title  "packets decapsulated, vector(packetBytes)"
vector 214  mec.RG1.networkLayer.arp  sentReq:vector  ETV
attr title  "ARP request sent, vector"
vector 252  mec.RG1.eth[2].encap  encapPk:vector(packetBytes)  ETV
attr interpolationmode  none
attr source  encapPk
attr title  "packets encapsulated, vector(packetBytes)"
vector 248  mec.RG1.eth[2].mac  rxPkFromHL:vector(packetBytes)  ETV
attr interpolationmode  none
attr source  rxPkFromHL
attr title  "packet bytes from higher layer, vector(packetBytes)"
vector 243  mec.RG1.eth[2].mac  txPk:vector(packetBytes)  ETV
attr interpolationmode  none
attr source  txPk
attr title  "packets transmitted, vector(packetBytes)"
vector 316  mec.Core.eth[2].mac  rxPkOk:vector(packetBytes)  ETV
attr interpolationmode  none
attr source  rxPkOk
attr title  "packets received OK, vector(packetBytes)"
vector 317  mec.Core.eth[2].mac  passedUpPk:vector(packetBytes)  ETV
attr interpolationmode  none
attr source  packetSentToUpper
attr title  "packets passed to higher layer, vector(packetBytes)"
vector 325  mec.Core.eth[2].encap  decapPk:vector(packetBytes)  ETV
attr interpolationmode  none
attr source  decapPk
attr title  "packets decapsulated, vector(packetBytes)"
vector 324  mec.Core.eth[2].encap  encapPk:vector(packetBytes)  ETV
attr interpolationmode  none
attr source  encapPk
attr title  "packets encapsulated, vector(packetBytes)"
vector 320  mec.Core.eth[2].mac  rxPkFromHL:vector(packetBytes)  ETV
attr interpolationmode  none
attr source  rxPkFromHL
attr title  "packet bytes from higher layer, vector(packetBytes)"
vector 315  mec.Core.eth[2].mac  txPk:vector(packetBytes)  ETV
attr interpolationmode  none
attr source  txPk
attr title  "packets transmitted, vector(packetBytes)"
vector 244  mec.RG1.eth[2].mac  rxPkOk:vector(packetBytes)  ETV
attr interpolationmode  none
attr source  rxPkOk
attr title  "packets received OK, vector(packetBytes)"
vector 245  mec.RG1.eth[2].mac  passedUpPk:vector(packetBytes)  ETV
attr interpolationmode  none
attr source  packetSentToUpper
attr title  "packets passed to higher layer, vector(packetBytes)"
vector 253  mec.RG1.eth[2].encap  decapPk:vector(packetBytes)  ETV
attr interpolationmode  none
attr source  decapPk
attr title  "packets decapsulated, vector(packetBytes)"
vector 4  mec.Edge1.networkLayer.arp  sentReq:vector  ETV
attr title  "ARP request sent, vector"
vector 18  mec.Edge1.eth[0].encap  encapPk:vector(packetBytes)  ETV
attr interpolationmode  none
attr source  encapPk
attr title  "packets encapsulated, vector(packetBytes)"
vector 14  mec.Edge1.eth[0].mac  rxPkFromHL:vector(packetBytes)  ETV
attr interpolationmode  none
attr source  rxPkFromHL
attr title  "packet bytes from higher layer, vector(packetBytes)"
vector 9  mec.Edge1.eth[0].mac  txPk:vector(packetBytes)  ETV
attr interpolationmode  none
attr source  txPk
attr title  "packets transmitted, vector(packetBytes)"
vector 220  mec.RG1.eth[0].mac  rxPkOk:vector(packetBytes)  ETV
attr interpolationmode  none
attr source  rxPkOk
attr title  "packets received OK, vector(packetBytes)"
vector 221  mec.RG1.eth[0].mac  passedUpPk:vector(packetBytes)  ETV
attr interpolationmode  none
attr source  packetSentToUpper
attr title  "packets passed to higher layer, vector(packetBytes)"
vector 229  mec.RG1.eth[0].encap  decapPk:vector(packetBytes)  ETV
attr interpolationmode  none
attr source  decapPk
attr title  "packets decapsulated, vector(packetBytes)"
vector 228  mec.RG1.eth[0].encap  encapPk:vector(packetBytes)  ETV
attr interpolationmode  none
attr source  encapPk
attr title  "packets encapsulated, vector(packetBytes)"
vector 224  mec.RG1.eth[0].mac  rxPkFromHL:vector(packetBytes)  ETV
attr interpolationmode  none
attr source  rxPkFromHL
attr title  "packet bytes from higher layer, vector(packetBytes)"
vector 219  mec.RG1.eth[0].mac  txPk:vector(packetBytes)  ETV
attr interpolationmode  none
attr source  txPk
attr title  "packets transmitted, vector(packetBytes)"
vector 10  mec.Edge1.eth[0].mac  rxPkOk:vector(packetBytes)  ETV
attr interpolationmode  none
attr source  rxPkOk
attr title  "packets received OK, vector(packetBytes)"
vector 11  mec.Edge1.eth[0].mac  passedUpPk:vector(packetBytes)  ETV
attr interpolationmode  none
attr source  packetSentToUpper
attr title  "packets passed to higher layer, vector(packetBytes)"
vector 19  mec.Edge1.eth[0].encap  decapPk:vector(packetBytes)  ETV
attr interpolationmode  none
attr source  decapPk
attr title  "packets decapsulated, vector(packetBytes)"
vector 126  mec.SP[2].udp  rcvdPk:vector(packetBytes)  ETV
attr interpolationmode  none
attr source  rcvdPk
attr title  "packets received, vector(packetBytes)"
vector 127  mec.SP[2].udp  passedUpPk:vector(count)  ETV
attr interpolationmode  none
attr title  "packets passed up, vector(count)"
vector 120  mec.SP[2].udpApp[0]  rcvdPk:vector(packetBytes)  ETV
attr interpolationmode  none
attr source  rcvdPk
attr title  "packets received, vector(packetBytes)"
vector 123  mec.SP[2].udpApp[0]  rcvdPkLifetime:vector  ETV
attr interpolationmode  none
attr source  messageAge(rcvdPk)
attr title  "received packet lifetime, vector"
attr unit  s
vector 124  mec.SP[2].udpApp[0]  rcvdPkSeqNo:vector  ETV
attr interpolationmode  none
attr source  appPkSeqNo(rcvdPk)
attr title  "received packet sequence number, vector"
vector 125  mec.SP[2].udp  sentPk:vector(packetBytes)  ETV
attr interpolationmode  none
attr source  sentPk
attr title  "packets sent, vector(packetBytes)"
vector 77  mec.SP[1].networkLayer.arp  sentReply:vector  ETV
attr title  "ARP replies sent, vector"
vector 90  mec.SP[1].eth[0].encap  encapPk:vector(packetBytes)  ETV
attr interpolationmode  none
attr source  encapPk
attr title  "packets encapsulated, vector(packetBytes)"
vector 86  mec.SP[1].eth[0].mac  rxPkFromHL:vector(packetBytes)  ETV
attr interpolationmode  none
attr source  rxPkFromHL
attr title  "packet bytes from higher layer, vector(packetBytes)"
vector 81  mec.SP[1].eth[0].mac  txPk:vector(packetBytes)  ETV
attr interpolationmode  none
attr source  txPk
attr title  "packets transmitted, vector(packetBytes)"
vector 752  mec.Sw.eth[2].mac  rxPkOk:vector(packetBytes)  ETV
attr interpolationmode  none
attr source  rxPkOk
attr title  "packets received OK, vector(packetBytes)"
vector 753  mec.Sw.eth[2].mac  passedUpPk:vector(packetBytes)  ETV
attr interpolationmode  none
attr source  packetSentToUpper
attr title  "packets passed to higher layer, vector(packetBytes)"
vector 50  mec.SP[0].networkLayer.arp  sentReply:vector  ETV
attr title  "ARP replies sent, vector"
vector 63  mec.SP[0].eth[0].encap  encapPk:vector(packetBytes)  ETV
attr interpolationmode  none
attr source  encapPk
attr title  "packets encapsulated, vector(packetBytes)"
vector 59  mec.SP[0].eth[0].mac  rxPkFromHL:vector(packetBytes)  ETV
attr interpolationmode  none
attr source  rxPkFromHL
attr title  "packet bytes from higher layer, vector(packetBytes)"
vector 54  mec.SP[0].eth[0].mac  txPk:vector(packetBytes)  ETV
attr interpolationmode  none
attr source  txPk
attr title  "packets transmitted, vector(packetBytes)"
vector 741  mec.Sw.eth[1].mac  rxPkOk:vector(packetBytes)  ETV
attr interpolationmode  none
attr source  rxPkOk
attr title  "packets received OK, vector(packetBytes)"
vector 742  mec.Sw.eth[1].mac  passedUpPk:vector(packetBytes)  ETV
attr interpolationmode  none
attr source  packetSentToUpper
attr title  "packets passed to higher layer, vector(packetBytes)"
vector 300  mec.Core.eth[0].encap  encapPk:vector(packetBytes)  ETV
attr interpolationmode  none
attr source  encapPk
attr title  "packets encapsulated, vector(packetBytes)"
vector 296  mec.Core.eth[0].mac  rxPkFromHL:vector(packetBytes)  ETV
attr interpolationmode  none
attr source  rxPkFromHL
attr title  "packet bytes from higher layer, vector(packetBytes)"
vector 291  mec.Core.eth[0].mac  txPk:vector(packetBytes)  ETV
attr interpolationmode  none
attr source  txPk
attr title  "packets transmitted, vector(packetBytes)"
vector 190  mec.Enoma.eth[0].mac  rxPkOk:vector(packetBytes)  ETV
attr interpolationmode  none
attr source  rxPkOk
attr title  "packets received OK, vector(packetBytes)"
vector 191  mec.Enoma.eth[0].mac  passedUpPk:vector(packetBytes)  ETV
attr interpolationmode  none
attr source  packetSentToUpper
attr title  "packets passed to higher layer, vector(packetBytes)"
vector 199  mec.Enoma.eth[0].encap  decapPk:vector(packetBytes)  ETV
attr interpolationmode  none
attr source  decapPk
attr title  "packets decapsulated, vector(packetBytes)"
vector 185  mec.Enoma.networkLayer.arp  sentReply:vector  ETV
attr title  "ARP replies sent, vector"
vector 198  mec.Enoma.eth[0].encap  encapPk:vector(packetBytes)  ETV
attr interpolationmode  none
attr source  encapPk
attr title  "packets encapsulated, vector(packetBytes)"
vector 194  mec.Enoma.eth[0].mac  rxPkFromHL:vector(packetBytes)  ETV
attr interpolationmode  none
attr source  rxPkFromHL
attr title  "packet bytes from higher layer, vector(packetBytes)"
vector 99  mec.SP[1].udp  rcvdPk:vector(packetBytes)  ETV
attr interpolationmode  none
attr source  rcvdPk
attr title  "packets received, vector(packetBytes)"
vector 100  mec.SP[1].udp  passedUpPk:vector(count)  ETV
attr interpolationmode  none
attr title  "packets passed up, vector(count)"
vector 93  mec.SP[1].udpApp[0]  rcvdPk:vector(packetBytes)  ETV
attr interpolationmode  none
attr source  rcvdPk
attr title  "packets received, vector(packetBytes)"
vector 96  mec.SP[1].udpApp[0]  rcvdPkLifetime:vector  ETV
attr interpolationmode  none
attr source  messageAge(rcvdPk)
attr title  "received packet lifetime, vector"
attr unit  s
vector 97  mec.SP[1].udpApp[0]  rcvdPkSeqNo:vector  ETV
attr interpolationmode  none
attr source  appPkSeqNo(rcvdPk)
attr title  "received packet sequence number, vector"
vector 98  mec.SP[1].udp  sentPk:vector(packetBytes)  ETV
attr interpolationmode  none
attr source  sentPk
attr title  "packets sent, vector(packetBytes)"
vector 189  mec.Enoma.eth[0].mac  txPk:vector(packetBytes)  ETV
attr interpolationmode  none
attr source  txPk
attr title  "packets transmitted, vector(packetBytes)"
vector 292  mec.Core.eth[0].mac  rxPkOk:vector(packetBytes)  ETV
attr interpolationmode  none
attr source  rxPkOk
attr title  "packets received OK, vector(packetBytes)"
vector 293  mec.Core.eth[0].mac  passedUpPk:vector(packetBytes)  ETV
attr interpolationmode  none
attr source  packetSentToUpper
attr title  "packets passed to higher layer, vector(packetBytes)"
vector 301  mec.Core.eth[0].encap  decapPk:vector(packetBytes)  ETV
attr interpolationmode  none
attr source  decapPk
attr title  "packets decapsulated, vector(packetBytes)"
vector 207  mec.Enoma.udp  rcvdPk:vector(packetBytes)  ETV
attr interpolationmode  none
attr source  rcvdPk
attr title  "packets received, vector(packetBytes)"
vector 208  mec.Enoma.udp  passedUpPk:vector(count)  ETV
attr interpolationmode  none
attr title  "packets passed up, vector(count)"
vector 201  mec.Enoma.udpApp[0]  rcvdPk:vector(packetBytes)  ETV
attr interpolationmode  none
attr source  rcvdPk
attr title  "packets received, vector(packetBytes)"
vector 204  mec.Enoma.udpApp[0]  rcvdPkLifetime:vector  ETV
attr interpolationmode  none
attr source  messageAge(rcvdPk)
attr title  "received packet lifetime, vector"
attr unit  s
vector 72  mec.SP[0].udp  rcvdPk:vector(packetBytes)  ETV
attr interpolationmode  none
attr source  rcvdPk
attr title  "packets received, vector(packetBytes)"
vector 73  mec.SP[0].udp  passedUpPk:vector(count)  ETV
attr interpolationmode  none
attr title  "packets passed up, vector(count)"
vector 66  mec.SP[0].udpApp[0]  rcvdPk:vector(packetBytes)  ETV
attr interpolationmode  none
attr source  rcvdPk
attr title  "packets received, vector(packetBytes)"
vector 69  mec.SP[0].udpApp[0]  rcvdPkLifetime:vector  ETV
attr interpolationmode  none
attr source  messageAge(rcvdPk)
attr title  "received packet lifetime, vector"
attr unit  s
vector 70  mec.SP[0].udpApp[0]  rcvdPkSeqNo:vector  ETV
attr interpolationmode  none
attr source  appPkSeqNo(rcvdPk)
attr title  "received packet sequence number, vector"
vector 71  mec.SP[0].udp  sentPk:vector(packetBytes)  ETV
attr interpolationmode  none
attr source  sentPk
attr title  "packets sent, vector(packetBytes)"
vector 532  mec.ue1[0].udpApp[0]  sentPk:vector(packetBytes)  ETV
attr interpolationmode  none
attr source  sentPk
attr title  "packets sent, vector(packetBytes)"
vector 535  mec.ue1[0].udp  sentPk:vector(packetBytes)  ETV
attr interpolationmode  none
attr source  sentPk
attr title  "packets sent, vector(packetBytes)"
vector 513  mec.ue1[0].networkLayer.arp  sentReq:vector  ETV
attr title  "ARP request sent, vector"
vector 527  mec.ue1[0].eth[0].encap  encapPk:vector(packetBytes)  ETV
attr interpolationmode  none
attr source  encapPk
attr title  "packets encapsulated, vector(packetBytes)"
vector 523  mec.ue1[0].eth[0].mac  rxPkFromHL:vector(packetBytes)  ETV
attr interpolationmode  none
attr source  rxPkFromHL
attr title  "packet bytes from higher layer, vector(packetBytes)"
vector 518  mec.ue1[0].eth[0].mac  txPk:vector(packetBytes)  ETV
attr interpolationmode  none
attr source  txPk
attr title  "packets transmitted, vector(packetBytes)"
vector 807  mec.sw1.eth[1].mac  rxPkOk:vector(packetBytes)  ETV
attr interpolationmode  none
attr source  rxPkOk
attr title  "packets received OK, vector(packetBytes)"
vector 808  mec.sw1.eth[1].mac  passedUpPk:vector(packetBytes)  ETV
attr interpolationmode  none
attr source  packetSentToUpper
attr title  "packets passed to higher layer, vector(packetBytes)"
vector 640  mec.ue2[1].udpApp[0]  sentPk:vector(packetBytes)  ETV
attr interpolationmode  none
attr source  sentPk
attr title  "packets sent, vector(packetBytes)"
vector 643  mec.ue2[1].udp  sentPk:vector(packetBytes)  ETV
attr interpolationmode  none
attr source  sentPk
attr title  "packets sent, vector(packetBytes)"
vector 621  mec.ue2[1].networkLayer.arp  sentReq:vector  ETV
attr title  "ARP request sent, vector"
vector 635  mec.ue2[1].eth[0].encap  encapPk:vector(packetBytes)  ETV
attr interpolationmode  none
attr source  encapPk
attr title  "packets encapsulated, vector(packetBytes)"
vector 631  mec.ue2[1].eth[0].mac  rxPkFromHL:vector(packetBytes)  ETV
attr interpolationmode  none
attr source  rxPkFromHL
attr title  "packet bytes from higher layer, vector(packetBytes)"
vector 626  mec.ue2[1].eth[0].mac  txPk:vector(packetBytes)  ETV
attr interpolationmode  none
attr source  txPk
attr title  "packets transmitted, vector(packetBytes)"
vector 862  mec.sw2.eth[2].mac  rxPkOk:vector(packetBytes)  ETV
attr interpolationmode  none
attr source  rxPkOk
attr title  "packets received OK, vector(packetBytes)"
vector 863  mec.sw2.eth[2].mac  passedUpPk:vector(packetBytes)  ETV
attr interpolationmode  none
attr source  packetSentToUpper
attr title  "packets passed to higher layer, vector(packetBytes)"
vector 671  mec.ue3[0].udp  rcvdPk:vector(packetBytes)  ETV
attr interpolationmode  none
attr source  rcvdPk
attr title  "packets received, vector(packetBytes)"
vector 672  mec.ue3[0].udp  passedUpPk:vector(count)  ETV
attr interpolationmode  none
attr title  "packets passed up, vector(count)"
vector 665  mec.ue3[0].udpApp[0]  rcvdPk:vector(packetBytes)  ETV
attr interpolationmode  none
attr source  rcvdPk
attr title  "packets received, vector(packetBytes)"
vector 668  mec.ue3[0].udpApp[0]  rcvdPkLifetime:vector  ETV
attr interpolationmode  none
attr source  messageAge(rcvdPk)
attr title  "received packet lifetime, vector"
attr unit  s
vector 669  mec.ue3[0].udpApp[0]  rcvdPkSeqNo:vector  ETV
attr interpolationmode  none
attr source  appPkSeqNo(rcvdPk)
attr title  "received packet sequence number, vector"
vector 586  mec.ue1[2].udpApp[0]  sentPk:vector(packetBytes)  ETV
attr interpolationmode  none
attr source  sentPk
attr title  "packets sent, vector(packetBytes)"
vector 589  mec.ue1[2].udp  sentPk:vector(packetBytes)  ETV
attr interpolationmode  none
attr source  sentPk
attr title  "packets sent, vector(packetBytes)"
vector 567  mec.ue1[2].networkLayer.arp  sentReq:vector  ETV
attr title  "ARP request sent, vector"
vector 581  mec.ue1[2].eth[0].encap  encapPk:vector(packetBytes)  ETV
attr interpolationmode  none
attr source  encapPk
attr title  "packets encapsulated, vector(packetBytes)"
vector 577  mec.ue1[2].eth[0].mac  rxPkFromHL:vector(packetBytes)  ETV
attr interpolationmode  none
attr source  rxPkFromHL
attr title  "packet bytes from higher layer, vector(packetBytes)"
vector 572  mec.ue1[2].eth[0].mac  txPk:vector(packetBytes)  ETV
attr interpolationmode  none
attr source  txPk
attr title  "packets transmitted, vector(packetBytes)"
vector 829  mec.sw1.eth[3].mac  rxPkOk:vector(packetBytes)  ETV
attr interpolationmode  none
attr source  rxPkOk
attr title  "packets received OK, vector(packetBytes)"
vector 830  mec.sw1.eth[3].mac  passedUpPk:vector(packetBytes)  ETV
attr interpolationmode  none
attr source  packetSentToUpper
attr title  "packets passed to higher layer, vector(packetBytes)"
vector 617  mec.ue2[0].udp  rcvdPk:vector(packetBytes)  ETV
attr interpolationmode  none
attr source  rcvdPk
attr title  "packets received, vector(packetBytes)"
vector 618  mec.ue2[0].udp  passedUpPk:vector(count)  ETV
attr interpolationmode  none
attr title  "packets passed up, vector(count)"
vector 611  mec.ue2[0].udpApp[0]  rcvdPk:vector(packetBytes)  ETV
attr interpolationmode  none
attr source  rcvdPk
attr title  "packets received, vector(packetBytes)"
vector 614  mec.ue2[0].udpApp[0]  rcvdPkLifetime:vector  ETV
attr interpolationmode  none
attr source  messageAge(rcvdPk)
attr title  "received packet lifetime, vector"
attr unit  s
vector 615  mec.ue2[0].udpApp[0]  rcvdPkSeqNo:vector  ETV
attr interpolationmode  none
attr source  appPkSeqNo(rcvdPk)
attr title  "received packet sequence number, vector"
vector 698  mec.ue3[1].udp  rcvdPk:vector(packetBytes)  ETV
attr interpolationmode  none
attr source  rcvdPk
attr title  "packets received, vector(packetBytes)"
vector 699  mec.ue3[1].udp  passedUpPk:vector(count)  ETV
attr interpolationmode  none
attr title  "packets passed up, vector(count)"
vector 692  mec.ue3[1].udpApp[0]  rcvdPk:vector(packetBytes)  ETV
attr interpolationmode  none
attr source  rcvdPk
attr title  "packets received, vector(packetBytes)"
vector 695  mec.ue3[1].udpApp[0]  rcvdPkLifetime:vector  ETV
attr interpolationmode  none
attr source  messageAge(rcvdPk)
attr title  "received packet lifetime, vector"
attr unit  s
vector 696  mec.ue3[1].udpApp[0]  rcvdPkSeqNo:vector  ETV
attr interpolationmode  none
attr source  appPkSeqNo(rcvdPk)
attr title  "received packet sequence number, vector"
vector 563  mec.ue1[1].udp  rcvdPk:vector(packetBytes)  ETV
attr interpolationmode  none
attr source  rcvdPk
attr title  "packets received, vector(packetBytes)"
vector 564  mec.ue1[1].udp  passedUpPk:vector(count)  ETV
attr interpolationmode  none
attr title  "packets passed up, vector(count)"
vector 557  mec.ue1[1].udpApp[0]  rcvdPk:vector(packetBytes)  ETV
attr interpolationmode  none
attr source  rcvdPk
attr title  "packets received, vector(packetBytes)"
vector 560  mec.ue1[1].udpApp[0]  rcvdPkLifetime:vector  ETV
attr interpolationmode  none
attr source  messageAge(rcvdPk)
attr title  "received packet lifetime, vector"
attr unit  s
vector 561  mec.ue1[1].udpApp[0]  rcvdPkSeqNo:vector  ETV
attr interpolationmode  none
attr source  appPkSeqNo(rcvdPk)
attr title  "received packet sequence number, vector"
vector 725  mec.ue3[2].udp  rcvdPk:vector(packetBytes)  ETV
attr interpolationmode  none
attr source  rcvdPk
attr title  "packets received, vector(packetBytes)"
vector 726  mec.ue3[2].udp  passedUpPk:vector(count)  ETV
attr interpolationmode  none
attr title  "packets passed up, vector(count)"
vector 719  mec.ue3[2].udpApp[0]  rcvdPk:vector(packetBytes)  ETV
attr interpolationmode  none
attr source  rcvdPk
attr title  "packets received, vector(packetBytes)"
vector 722  mec.ue3[2].udpApp[0]  rcvdPkLifetime:vector  ETV
attr interpolationmode  none
attr source  messageAge(rcvdPk)
attr title  "received packet lifetime, vector"
attr unit  s
vector 723  mec.ue3[2].udpApp[0]  rcvdPkSeqNo:vector  ETV
attr interpolationmode  none
attr source  appPkSeqNo(rcvdPk)
attr title  "received packet sequence number, vector"
vector 536  mec.ue1[0].udp  rcvdPk:vector(packetBytes)  ETV
attr interpolationmode  none
attr source  rcvdPk
attr title  "packets received, vector(packetBytes)"
vector 537  mec.ue1[0].udp  passedUpPk:vector(count)  ETV
attr interpolationmode  none
attr title  "packets passed up, vector(count)"
vector 530  mec.ue1[0].udpApp[0]  rcvdPk:vector(packetBytes)  ETV
attr interpolationmode  none
attr source  rcvdPk
attr title  "packets received, vector(packetBytes)"
vector 533  mec.ue1[0].udpApp[0]  rcvdPkLifetime:vector  ETV
attr interpolationmode  none
attr source  messageAge(rcvdPk)
attr title  "received packet lifetime, vector"
attr unit  s
vector 534  mec.ue1[0].udpApp[0]  rcvdPkSeqNo:vector  ETV
attr interpolationmode  none
attr source  appPkSeqNo(rcvdPk)
attr title  "received packet sequence number, vector"
vector 644  mec.ue2[1].udp  rcvdPk:vector(packetBytes)  ETV
attr interpolationmode  none
attr source  rcvdPk
attr title  "packets received, vector(packetBytes)"
vector 645  mec.ue2[1].udp  passedUpPk:vector(count)  ETV
attr interpolationmode  none
attr title  "packets passed up, vector(count)"
vector 638  mec.ue2[1].udpApp[0]  rcvdPk:vector(packetBytes)  ETV
attr interpolationmode  none
attr source  rcvdPk
attr title  "packets received, vector(packetBytes)"
vector 641  mec.ue2[1].udpApp[0]  rcvdPkLifetime:vector  ETV
attr interpolationmode  none
attr source  messageAge(rcvdPk)
attr title  "received packet lifetime, vector"
attr unit  s
vector 642  mec.ue2[1].udpApp[0]  rcvdPkSeqNo:vector  ETV
attr interpolationmode  none
attr source  appPkSeqNo(rcvdPk)
attr title  "received packet sequence number, vector"
vector 590  mec.ue1[2].udp  rcvdPk:vector(packetBytes)  ETV
attr interpolationmode  none
attr source  rcvdPk
attr title  "packets received, vector(packetBytes)"
vector 591  mec.ue1[2].udp  passedUpPk:vector(count)  ETV
attr interpolationmode  none
attr title  "packets passed up, vector(count)"
vector 584  mec.ue1[2].udpApp[0]  rcvdPk:vector(packetBytes)  ETV
attr interpolationmode  none
attr source  rcvdPk
attr title  "packets received, vector(packetBytes)"
vector 587  mec.ue1[2].udpApp[0]  rcvdPkLifetime:vector  ETV
attr interpolationmode  none
attr source  messageAge(rcvdPk)
attr title  "received packet lifetime, vector"
attr unit  s
vector 588  mec.ue1[2].udpApp[0]  rcvdPkSeqNo:vector  ETV
attr interpolationmode  none
attr source  appPkSeqNo(rcvdPk)
attr title  "received packet sequence number, vector"
vector 202  mec.Enoma.udpApp[0]  throughput:vector  ETV
attr source  throughput(rcvdPk)
attr title  "throughput, vector"
attr unit  bps
vector 121  mec.SP[2].udpApp[0]  throughput:vector  ETV
attr source  throughput(rcvdPk)
attr title  "throughput, vector"
attr unit  bps
vector 67  mec.SP[0].udpApp[0]  throughput:vector  ETV
attr source  throughput(rcvdPk)
attr title  "throughput, vector"
attr unit  bps
vector 94  mec.SP[1].udpApp[0]  throughput:vector  ETV
attr source  throughput(rcvdPk)
attr title  "throughput, vector"
attr unit  bps
vector 666  mec.ue3[0].udpApp[0]  throughput:vector  ETV
attr source  throughput(rcvdPk)
attr title  "throughput, vector"
attr unit  bps
vector 693  mec.ue3[1].udpApp[0]  throughput:vector  ETV
attr source  throughput(rcvdPk)
attr title  "throughput, vector"
attr unit  bps
vector 206  mec.Enoma.udp  sentPk:vector(packetBytes)  ETV
attr interpolationmode  none
attr source  sentPk
attr title  "packets sent, vector(packetBytes)"
vector 508  mec.Edge3.udpE  rcvdPk:vector(packetBytes)  ETV
attr interpolationmode  none
attr source  rcvdPk
attr title  "packets received, vector(packetBytes)"
vector 509  mec.Edge3.udpE  passedUpPk:vector(count)  ETV
attr interpolationmode  none
attr title  "packets passed up, vector(count)"
vector 502  mec.Edge3.udpApp[1]  rcvdPk:vector(packetBytes)  ETV
attr interpolationmode  none
attr source  rcvdPk
attr title  "packets received, vector(packetBytes)"
vector 503  mec.Edge3.udpApp[1]  throughput:vector  ETV
attr source  throughput(rcvdPk)
attr title  "throughput, vector"
attr unit  bps
vector 505  mec.Edge3.udpApp[1]  rcvdPkLifetime:vector  ETV
attr interpolationmode  none
attr source  messageAge(rcvdPk)
attr title  "received packet lifetime, vector"
attr unit  s
vector 44  mec.Edge1.udpE  rcvdPk:vector(packetBytes)  ETV
attr interpolationmode  none
attr source  rcvdPk
attr title  "packets received, vector(packetBytes)"
vector 45  mec.Edge1.udpE  passedUpPk:vector(count)  ETV
attr interpolationmode  none
attr title  "packets passed up, vector(count)"
vector 38  mec.Edge1.udpApp[1]  rcvdPk:vector(packetBytes)  ETV
attr interpolationmode  none
attr source  rcvdPk
attr title  "packets received, vector(packetBytes)"
vector 39  mec.Edge1.udpApp[1]  throughput:vector  ETV
attr source  throughput(rcvdPk)
attr title  "throughput, vector"
attr unit  bps
vector 41  mec.Edge1.udpApp[1]  rcvdPkLifetime:vector  ETV
attr interpolationmode  none
attr source  messageAge(rcvdPk)
attr title  "received packet lifetime, vector"
attr unit  s
vector 459  mec.Edge2.udpE  rcvdPk:vector(packetBytes)  ETV
attr interpolationmode  none
attr source  rcvdPk
attr title  "packets received, vector(packetBytes)"
vector 460  mec.Edge2.udpE  passedUpPk:vector(count)  ETV
attr interpolationmode  none
attr title  "packets passed up, vector(count)"
vector 453  mec.Edge2.udpApp[1]  rcvdPk:vector(packetBytes)  ETV
attr interpolationmode  none
attr source  rcvdPk
attr title  "packets received, vector(packetBytes)"
vector 454  mec.Edge2.udpApp[1]  throughput:vector  ETV
attr source  throughput(rcvdPk)
attr title  "throughput, vector"
attr unit  bps
vector 456  mec.Edge2.udpApp[1]  rcvdPkLifetime:vector  ETV
attr interpolationmode  none
attr source  messageAge(rcvdPk)
attr title  "received packet lifetime, vector"
attr unit  s
vector 639  mec.ue2[1].udpApp[0]  throughput:vector  ETV
attr source  throughput(rcvdPk)
attr title  "throughput, vector"
attr unit  bps
vector 497  mec.Edge3.udpApp[0]  rcvdPk:vector(packetBytes)  ETV
attr interpolationmode  none
attr source  rcvdPk
attr title  "packets received, vector(packetBytes)"
vector 498  mec.Edge3.udpApp[0]  throughput:vector  ETV
attr source  throughput(rcvdPk)
attr title  "throughput, vector"
attr unit  bps
vector 500  mec.Edge3.udpApp[0]  rcvdPkLifetime:vector  ETV
attr interpolationmode  none
attr source  messageAge(rcvdPk)
attr title  "received packet lifetime, vector"
attr unit  s
vector 501  mec.Edge3.udpApp[0]  rcvdPkSeqNo:vector  ETV
attr interpolationmode  none
attr source  appPkSeqNo(rcvdPk)
attr title  "received packet sequence number, vector"
vector 507  mec.Edge3.udpE  sentPk:vector(packetBytes)  ETV
attr interpolationmode  none
attr source  sentPk
attr title  "packets sent, vector(packetBytes)"
vector 612  mec.ue2[0].udpApp[0]  throughput:vector  ETV
attr source  throughput(rcvdPk)
attr title  "throughput, vector"
attr unit  bps
vector 33  mec.Edge1.udpApp[0]  rcvdPk:vector(packetBytes)  ETV
attr interpolationmode  none
attr source  rcvdPk
attr title  "packets received, vector(packetBytes)"
vector 34  mec.Edge1.udpApp[0]  throughput:vector  ETV
attr source  throughput(rcvdPk)
attr title  "throughput, vector"
attr unit  bps
vector 36  mec.Edge1.udpApp[0]  rcvdPkLifetime:vector  ETV
attr interpolationmode  none
attr source  messageAge(rcvdPk)
attr title  "received packet lifetime, vector"
attr unit  s
vector 37  mec.Edge1.udpApp[0]  rcvdPkSeqNo:vector  ETV
attr interpolationmode  none
attr source  appPkSeqNo(rcvdPk)
attr title  "received packet sequence number, vector"
vector 43  mec.Edge1.udpE  sentPk:vector(packetBytes)  ETV
attr interpolationmode  none
attr source  sentPk
attr title  "packets sent, vector(packetBytes)"
vector 448  mec.Edge2.udpApp[0]  rcvdPk:vector(packetBytes)  ETV
attr interpolationmode  none
attr source  rcvdPk
attr title  "packets received, vector(packetBytes)"
vector 449  mec.Edge2.udpApp[0]  throughput:vector  ETV
attr source  throughput(rcvdPk)
attr title  "throughput, vector"
attr unit  bps
vector 451  mec.Edge2.udpApp[0]  rcvdPkLifetime:vector  ETV
attr interpolationmode  none
attr source  messageAge(rcvdPk)
attr title  "received packet lifetime, vector"
attr unit  s
vector 452  mec.Edge2.udpApp[0]  rcvdPkSeqNo:vector  ETV
attr interpolationmode  none
attr source  appPkSeqNo(rcvdPk)
attr title  "received packet sequence number, vector"
vector 458  mec.Edge2.udpE  sentPk:vector(packetBytes)  ETV
attr interpolationmode  none
attr source  sentPk
attr title  "packets sent, vector(packetBytes)"
vector 720  mec.ue3[2].udpApp[0]  throughput:vector  ETV
attr source  throughput(rcvdPk)
attr title  "throughput, vector"
attr unit  bps
vector 558  mec.ue1[1].udpApp[0]  throughput:vector  ETV
attr source  throughput(rcvdPk)
attr title  "throughput, vector"
attr unit  bps
vector 531  mec.ue1[0].udpApp[0]  throughput:vector  ETV
attr source  throughput(rcvdPk)
attr title  "throughput, vector"
attr unit  bps
vector 585  mec.ue1[2].udpApp[0]  throughput:vector  ETV
attr source  throughput(rcvdPk)
attr title  "throughput, vector"
attr unit  bps
vector 703  mec.ue3[2].networkLayer.arp  sentReply:vector  ETV
attr title  "ARP replies sent, vector"
vector 541  mec.ue1[1].networkLayer.arp  sentReply:vector  ETV
attr title  "ARP replies sent, vector"
vector 676  mec.ue3[1].networkLayer.arp  sentReply:vector  ETV
attr title  "ARP replies sent, vector"
vector 568  mec.ue1[2].networkLayer.arp  sentReply:vector  ETV
attr title  "ARP replies sent, vector"
vector 514  mec.ue1[0].networkLayer.arp  sentReply:vector  ETV
attr title  "ARP replies sent, vector"
vector 184  mec.Enoma.networkLayer.arp  sentReq:vector  ETV
attr title  "ARP request sent, vector"
vector 649  mec.ue3[0].networkLayer.arp  sentReply:vector  ETV
attr title  "ARP replies sent, vector"
0	75827 51 0 659614 0 2 3 0 260.5219 521.0438 135743.32075922
1	75878 45 0 659613 0 2 3 0 50000 100000 5000000000
2	75923 3004 0 663808 0 2.014235694221 107 548.81350230426 1000 88743.813506034 75161059.450891
3	78927 45 0 659613 0 2 3 0 50000 100000 5000000000
4	78972 186 578 661277 0.001163503131 2.004660539756 7 1 1 7 7
5	79158 120 300 688766 0.000934943131 2.10007634 5 1 1 5 5
9	79278 8418 585 688777 0.001169263131 2.1000821 293 64 1346 390532 525409928
10	87696 10462 601 774435 0.001175223131 2.40006462 365 64 1346 395140 525704840
11	98158 10462 601 774435 0.001175223131 2.40006462 365 64 1346 395140 525704840
14	108620 8711 581 688769 0.001163503131 2.10007634 293 64 1346 390532 525409928
18	117331 8711 580 688768 0.001163503131 2.10007634 293 28 1328 385204 511441712
19	126042 10462 602 774436 0.001175223131 2.40006462 365 28 1328 387292 511502264
21	136504 225412 310 776708 0.000940703131 2.407168125428 7313 64 1346 9831760 13232810528
22	361916 225458 291 776667 0.000934943131 2.407059805428 7313 64 1346 9831760 13232810528
23	587374 225458 291 776667 0.000934943131 2.407059805428 7313 64 1346 9831760 13232810528
26	812832 225411 305 776675 0.000934943131 2.407059805428 7313 64 1346 9831760 13232810528
30	1038243 225411 304 776674 0.000934943131 2.407059805428 7313 28 1328 9699964 12881224592
31	1263654 225458 294 776668 0.000934943131 2.407059805428 7313 28 1328 9699964 12881224592
33	1489112 216569 91994 776671 0.100387207364 2.407059805428 7014 1300 1300 9118200 11853660000
34	1705681 2944 91994 774526 0.1 2.400215524315 71 0 44334712.546638 2243057748.0893 7.2805621100971e+016
36	1708625 267664 91994 776671 0.100387207364 2.407059805428 7014 0.00021684 0.00066785021 1.711867280171 0.00043736221720251
37	1976289 213848 91994 776671 0.100387207364 2.407059805428 7014 91 2467 8875010 14427582660
38	2190137 1726 91545 774439 0.100039335273 2.40006462 72 1 1 72 72
39	2191863 449 91545 774362 0.1 2.4 24 0 240 5520 1324800
41	2192312 2375 91545 774439 0.100039335273 2.40006462 72 3.774e-005 8.806e-005 0.003822035273 2.1413061370198e-007
43	2194687 216569 91995 776672 0.100387207364 2.407059805428 7014 1308 1308 9174312 12000000096
44	2411256 218295 91544 776670 0.100039335273 2.407059805428 7086 9 1308 9174960 12000005928
45	2629551 217404 91544 776670 0.100039335273 2.407059805428 7086 1 7086 25109241 118624424231
48	2846955 54 0 659614 0 2 3 0 260.5219 521.0438 135743.32075922
50	2847009 24 781 781 0.00141220114 0.00141220114 1 1 1 1 1
54	2847033 17051 793 92274 0.00141796114 0.100607397285 581 64 1346 432744 531583376
55	2864084 8735 437 92106 0.001043328487 0.100485797285 293 64 1346 390532 525409928
56	2872819 8735 437 92106 0.001043328487 0.100485797285 293 64 1346 390532 525409928
59	2881554 17053 787 92119 0.00141220114 0.100485797285 581 64 1346 432744 531583376
63	2898607 17053 786 92117 0.00141220114 0.100485797285 581 28 1328 422268 516191504
64	2915660 8735 442 92108 0.001043328487 0.100485797285 293 28 1328 385204 511441712
66	2924395 8659 1024 92111 0.001760246426 0.100485797285 290 1300 1300 377000 490100000
67	2933054 82 33516 62063 0.036710816287 0.067463595266 2 28329525.333063 33818081.959688 62147607.292752 1.9462246730289e+015
69	2933136 11417 1024 92111 0.001760246426 0.100485797285 290 0.00065052 0.002004215811 0.300448025655 0.00034556484422759
70	2944553 8050 1024 92111 0.001760246426 0.100485797285 290 0 100 13898 894360
71	2952603 17028 1025 92113 0.001760246426 0.100485797285 580 108 1308 410640 499533120
72	2969631 8659 1023 92110 0.001760246426 0.100485797285 290 1308 1308 379320 496150560
73	2978290 8261 1023 92110 0.001760246426 0.100485797285 290 1 290 42195 8171765
77	2986551 24 678 678 0.00127948114 0.00127948114 1 1 1 1 1
81	2986575 10811 698 92500 0.00128524114 0.100839237285 369 64 1346 274592 337281984
82	2997386 5561 438 92370 0.001043328487 0.100704357285 187 64 1346 247856 333368032
83	3002947 5561 438 92370 0.001043328487 0.100704357285 187 64 1346 247856 333368032
86	3008508 10811 684 92383 0.00127948114 0.100704357285 369 64 1346 274592 337281984
90	3019319 10811 683 92381 0.00127948114 0.100704357285 369 28 1328 267932 327514896
91	3030130 5561 443 92372 0.001043328487 0.100704357285 187 28 1328 244436 324501808
93	3035691 5485 857 92375 0.00150804114 0.100704357285 184 1300 1300 239200 310960000
94	3041176 40 51926 51926 0.05577907647 0.05577907647 1 18644984.209435 18644984.209435 18644984.209435 3.4763543617007e+014
96	3041216 7206 857 92375 0.00150804114 0.100704357285 184 0.00065052 0.001880047942 0.183419226725 0.000202960712495
97	3048422 5097 857 92375 0.00150804114 0.100704357285 184 0 98 8421 519659
98	3053519 10786 858 92377 0.00150804114 0.100704357285 368 108 1308 260544 316945152
99	3064305 5485 856 92374 0.00150804114 0.100704357285 184 1308 1308 240672 314798976
100	3069790 5377 856 92374 0.00150804114 0.100704357285 184 1 184 17020 2093460
104	3075167 26 454 454 0.001043328487 0.001043328487 1 1 1 1 1
108	3075193 19294 474 91784 0.001049088487 0.100178976628 635 64 1346 473028 581075240
109	3094487 9870 439 91590 0.001043328487 0.100048677285 320 64 1346 426874 574326260
110	3104357 9870 439 91590 0.001043328487 0.100048677285 320 64 1346 426874 574326260
113	3114227 19292 459 91602 0.001043328487 0.100048677285 635 64 1346 473028 581075240
117	3133519 19292 458 91600 0.001043328487 0.100048677285 635 28 1328 461580 564250640
118	3152811 9870 444 91591 0.001043328487 0.100048677285 320 28 1328 421060 559058480
120	3162681 9791 636 91594 0.001271888487 0.100048677285 317 1300 1300 412100 535730000
121	3172472 126 28350 87544 0.030643901275 0.095635848187 3 29109723.343484 35537267.019726 98585227.882872 3.2620773063065e+015
123	3172598 12737 636 91594 0.001271888487 0.100048677285 317 0.00065052 0.001885676807 0.311239193808 0.00033510933252505
[...]
458	168625135 121598 4566736 5102035 15.357321514302 17.184458022031 3588 1308 1308 4693104 6138580032
459	168746733 122540 4566734 5102033 15.357321514302 17.184458022031 3624 9 1308 4693428 6138582948
460	168869273 126272 4566734 5102033 15.357321514302 17.184458022031 3624 30639 34262 117600612 3820164938956
463	168995545 50 4754744 5048681 16 17 2 261.0438 261.0438 522.0876 136287.73103688
464	168995595 50 4754746 5048683 16 17 2 261.0438 261.0438 522.0876 136287.73103688
465	168995645 40 4754745 5048682 16 17 2 0 50000 50000 2500000000
466	168995685 1350263 4954576 5102144 16.678649173796 17.184931598683 35629 951.72475274 1000 35313094.38665 35007307917.562
467	170345948 40 4754745 5048682 16 17 2 0 50000 50000 2500000000
468	170345988 186 4758775 5054893 16.012768139354 17.020487706321 6 1 1 6 6
469	170346174 53 4639379 4931372 15.6000293 16.60004274 2 1 1 2 2
473	170346227 55 4639410 4931397 15.60003506 16.6000485 2 64 64 128 8192
474	170346282 1565 4579003 5077633 15.4000293 17.10004446 56 64 64 3584 229376
475	170347847 1565 4579003 5077633 15.4000293 17.10004446 56 64 64 3584 229376
478	170349412 55 4639382 4931375 15.6000293 16.60004274 2 64 64 128 8192
482	170349467 55 4639381 4931374 15.6000293 16.60004274 2 28 28 56 1568
483	170349522 1565 4579004 5077634 15.4000293 17.10004446 56 28 29 1622 46982
485	170351087 190878 4566876 5102105 15.357650445725 17.184731100678 5633 64 1346 7574326 10194550508
486	170541965 190912 4566845 5102131 15.357542125725 17.184917142464 5634 64 1346 7575672 10196362224
487	170732877 190912 4566845 5102131 15.357542125725 17.184917142464 5634 64 1346 7575672 10196362224
490	170923789 190912 4566853 5102139 15.357542125725 17.184917142464 5634 64 1346 7575672 10196362224
494	171114701 190912 4566852 5102138 15.357542125725 17.184917142464 5634 28 1328 7474152 9925455456
495	171305613 190912 4566846 5102132 15.357542125725 17.184917142464 5634 28 1328 7474152 9925455456
497	171496525 190720 4566849 5102135 15.357542125725 17.184917142464 5628 1300 1300 7316400 9511320000
498	171687245 2506 4574814 5098964 15.38494505152 17.173023765189 56 26843295.259706 37969315.173005 1805307338.5972 5.859255054871e+016
500	171689751 231615 4566849 5102135 15.357542125725 17.184917142464 5628 0.00021684 0.000620390063 1.366594286866 0.00034624654535358
501	171921366 196348 4566849 5102135 15.357542125725 17.184917142464 5628 15312 17297 91808614 1499322058102
502	172117714 1456 4579007 5077637 15.4000293 17.10004446 54 1 1 54 54
503	172119170 392 4579007 5077553 15.4 17.1 18 240 240 4320 1036800
505	172119562 1940 4579007 5077637 15.4000293 17.10004446 54 1.758e-005 6.118e-005 0.00183572 7.11001976e-008
507	172121502 190720 4566850 5102136 15.357542125725 17.184917142464 5628 1308 1308 7361424 9628742592
508	172312222 192176 4566848 5102134 15.357542125725 17.184917142464 5682 9 1308 7361910 9628746966
509	172504398 198020 4566848 5102134 15.357542125725 17.184917142464 5682 46271 51952 279051543 13719926859785
512	172702418 50 4754746 5048683 16 17 2 261.0438 261.0438 522.0876 136287.73103688
514	172702468 62 4759560 5053082 16.014621512901 17.015303711763 2 1 1 2 2
518	172702530 64617 4566971 5101920 15.358063110737 17.184177209121 1907 64 1346 2564258 3451327172
519	172767147 64777 4566761 5102055 15.357426689164 17.184502569121 1912 64 1346 2565860 3453155272
520	172831924 64777 4566761 5102055 15.357426689164 17.184502569121 1912 64 1346 2565860 3453155272
523	172896701 64612 4566930 5101848 15.357954790737 17.184011400535 1907 64 1346 2564258 3451327172
527	172961313 64612 4566929 5101847 15.357954790737 17.184011400535 1907 28 1328 2529896 3359629088
528	173025925 64777 4566762 5102056 15.357426689164 17.184502569121 1912 28 1328 2531336 3361395808
530	173090702 64585 4566765 5102059 15.357426689164 17.184502569121 1906 1300 1300 2477800 3221140000
531	173155287 822 4590014 5089722 15.438266193172 17.140127068908 19 8736000 12064553.557168 206236624.34222 2.2522566090436e+015
532	173156109 64548 4566926 5101844 15.357954790737 17.184011400535 1905 1300 1300 2476500 3219450000
533	173220657 78441 4566765 5102059 15.357426689164 17.184502569121 1906 0.00043368 0.000817105164 0.87462508023099 0.00040611527995675
534	173299098 66491 4566765 5102059 15.357426689164 17.184502569121 1906 15115 17020 30624655 492638659505
535	173365589 64548 4566927 5101845 15.357954790737 17.184011400535 1905 1308 1308 2491740 3259195920
536	173430137 64585 4566764 5102058 15.357426689164 17.184502569121 1906 1308 1308 2493048 3260906784
537	173494722 66491 4566764 5102058 15.357426689164 17.184502569121 1906 15116 17021 30626561 492699910721
541	173561213 62 4759980 5053408 16.016258242265 17.016292944493 2 1 1 2 2
545	173561275 56613 4567070 5100861 15.358275412301 17.180097299809 1670 64 1346 2245256 3021950480
546	173617888 56795 4566808 5100930 15.357535969164 17.180422659809 1676 64 1346 2248204 3025590296
547	173674683 56795 4566808 5100930 15.357535969164 17.180422659809 1676 64 1346 2248204 3025590296
550	173731478 56641 4567008 5102128 15.358167092301 17.184896785959 1671 64 1346 2246602 3023762196
554	173788119 56641 4567007 5102127 15.358167092301 17.184896785959 1671 28 1328 2216488 2943423264
555	173844760 56795 4566809 5100931 15.357535969164 17.180422659809 1676 28 1328 2217928 2945189984
557	173901555 56603 4566812 5100934 15.357535969164 17.180422659809 1670 1300 1300 2171000 2822300000
558	173958158 683 4578130 5073732 15.395874808566 17.084089919256 18 8216000 11430811.551861 171055773.64837 1.6368201790605e+015
559	173958841 56577 4567004 5102124 15.358167092301 17.184896785959 1669 1300 1300 2169700 2820610000
560	174015418 68708 4566812 5100934 15.357535969164 17.180422659809 1670 0.00043368 0.000809152193 0.76741266747099 0.00035703789756045
561	174084126 58273 4566812 5100934 15.357535969164 17.180422659809 1670 15393 17062 27099925 440152154715
562	174142399 56577 4567005 5102125 15.358167092301 17.184896785959 1669 1308 1308 2183052 2855432016
563	174198976 56603 4566811 5100933 15.357535969164 17.180422659809 1670 1308 1308 2184360 2857142880
564	174255579 58273 4566811 5100933 15.357535969164 17.180422659809 1670 15394 17063 27101595 440206356235
568	174313852 62 4760760 5054394 16.018739753099 17.019105766969 2 1 1 2 2
572	174313914 60627 4567159 5101594 15.358410157214 17.182882429267 1790 64 1346 2406776 3239356400
573	174374541 60767 4567307 5101691 15.358735517214 17.183207789267 1794 64 1346 2407032 3239372784
574	174435308 60767 4567307 5101691 15.358735517214 17.183207789267 1794 64 1346 2407032 3239372784
577	174496075 60622 4567103 5101580 15.358301837214 17.182774109267 1790 64 1346 2406776 3239356400
581	174556697 60622 4567102 5101579 15.358301837214 17.182774109267 1790 28 1328 2374520 3153289760
582	174617319 60767 4567308 5101692 15.358735517214 17.183207789267 1794 28 1328 2374632 3153292896
584	174678086 60575 4567311 5101695 15.358735517214 17.183207789267 1788 1300 1300 2324400 3021720000
585	174738661 765 4581811 5094007 15.406731394121 17.155632142016 19 8216000 11896376.638382 193463316.7083 1.9898376375267e+015
586	174739426 60558 4567099 5101576 15.358301837214 17.182774109267 1788 1300 1300 2324400 3021720000
587	174799984 73520 4567311 5101695 15.358735517214 17.183207789267 1788 0.00043368 0.00079312016 0.81723950347999 0.00037724805364121
588	174873504 62363 4567311 5101695 15.358735517214 17.183207789267 1788 15480 17267 29275818 479823950530
589	174935867 60558 4567100 5101577 15.358301837214 17.182774109267 1788 1308 1308 2338704 3059024832
590	174996425 60575 4567310 5101694 15.358735517214 17.183207789267 1788 1308 1308 2338704 3059024832
591	175057000 62363 4567310 5101694 15.358735517214 17.183207789267 1788 15481 17268 29277606 479882503954
595	175119363 62 4762060 5056705 16.023622729291 17.026017195362 2 1 1 2 2
599	175119425 60931 4566741 5101981 15.357322274302 17.184349502031 1798 64 1346 2417544 3253850128
600	175180356 61022 4566821 5102093 15.357538354302 17.184674862031 1801 64 1346 2419018 3255670036
601	175241378 61022 4566821 5102093 15.357538354302 17.184674862031 1801 64 1346 2419018 3255670036
604	175302400 60898 4566900 5101931 15.357793899731 17.184241182031 1797 64 1346 2416198 3252038412
608	175363298 60898 4566899 5101930 15.357793899731 17.184241182031 1797 28 1328 2383816 3165634848
609	175424196 61022 4566822 5102094 15.357538354302 17.184674862031 1801 28 1328 2386528 3169163584
611	175485218 60894 4566825 5102097 15.357538354302 17.184674862031 1797 1300 1300 2336100 3036930000
612	175546112 733 4591700 5073956 15.443464980193 17.085516418457 18 8944000 14967704.660462 187793405.065 1.9906029638582e+015
613	175546845 60834 4566896 5101927 15.357793899731 17.184241182031 1795 1300 1300 2333500 3033550000
614	175607679 73219 4566825 5102097 15.357538354302 17.184674862031 1797 0.00043368 0.00076824 0.80675037874399 0.00036477341306457
615	175680898 62691 4566825 5102097 15.357538354302 17.184674862031 1797 15284 17080 29079054 471040825726
616	175743589 60834 4566897 5101928 15.357793899731 17.184241182031 1795 1308 1308 2347860 3071000880
617	175804423 60894 4566824 5102096 15.357538354302 17.184674862031 1797 1308 1308 2350476 3074422608
618	175865317 62691 4566824 5102096 15.357538354302 17.184674862031 1797 15285 17081 29080851 471098985631
622	175928008 62 4760878 5054428 16.018937903414 17.019136903109 2 1 1 2 2
626	175928070 60758 4566754 5101783 15.357420676658 17.18357723619 1793 64 1346 2410814 3244791548
627	175988828 60831 4566883 5101820 15.357756914302 17.18390259619 1795 64 1346 2410942 3244799740
628	176049659 60831 4566883 5101820 15.357756914302 17.18390259619 1795 64 1346 2410942 3244799740
631	176110490 60726 4566954 5101768 15.358030737542 17.18346891619 1792 64 1346 2409468 3242979832
635	176171216 60726 4566953 5101767 15.358030737542 17.18346891619 1792 28 1328 2377176 3156816928
636	176231942 60831 4566884 5101821 15.357756914302 17.18390259619 1795 28 1328 2378560 3158582080
638	176292773 60703 4566887 5101824 15.357756914302 17.18390259619 1791 1300 1300 2328300 3026790000
639	176353476 766 4585639 5097384 15.422106693688 17.168294457677 19 9048000 12101678.492786 194806360.59685 2.0144217808557e+015
640	176354242 60662 4566950 5101764 15.358030737542 17.18346891619 1790 1300 1300 2327000 3025100000
641	176414904 73005 4566887 5101824 15.357756914302 17.18390259619 1791 0.00043368 0.000779347223 0.80540888022999 0.00036519655180631
642	176487909 62494 4566887 5101824 15.357756914302 17.18390259619 1791 15232 17022 28883457 466282257279
643	176550403 60662 4566951 5101765 15.358030737542 17.18346891619 1790 1308 1308 2341320 3062446560
644	176611065 60703 4566886 5101823 15.357756914302 17.18390259619 1791 1308 1308 2342628 3064157424
645	176671768 62494 4566886 5101823 15.357756914302 17.18390259619 1791 15233 17023 28885248 466340025984
649	176734262 62 4758801 5052161 16.012779859354 17.013203152395 2 1 1 2 2
653	176734324 62463 4566967 5101952 15.358062737968 17.184268273591 1844 64 1346 2479460 3337189064
654	176796787 62604 4567227 5102074 15.358541616268 17.184593633591 1848 64 1346 2479716 3337205448
655	176859391 62604 4567227 5102074 15.358541616268 17.184593633591 1848 64 1346 2479716 3337205448
658	176921995 62470 4566924 5101895 15.357954417968 17.184159953591 1844 64 1346 2479460 3337189064
662	176984465 62504 4566923 5102145 15.357954417968 17.184931598683 1845 28 1328 2447560 3250286880
663	177046969 62604 4567228 5102075 15.358541616268 17.184593633591 1848 28 1328 2446344 3248526432
665	177109573 62412 4567231 5102078 15.358541616268 17.184593633591 1842 1300 1300 2394600 3112980000
666	177171985 783 4582691 5088916 15.40832718087 17.137357264848 19 8424000 12607070.835119 199727733.03444 2.1183148968539e+015
667	177172768 62440 4566920 5102142 15.357954417968 17.184931598683 1843 1300 1300 2395900 3114670000
668	177235208 75964 4567231 5102078 15.358541616268 17.184593633591 1842 0.00043368 0.000837230063 0.85047306469199 0.00039792714802638
669	177311172 64254 4567231 5102078 15.358541616268 17.184593633591 1842 15456 17297 30165513 494526343465
670	177375426 62440 4566921 5102143 15.357954417968 17.184931598683 1843 1308 1308 2410644 3153122352
671	177437866 62412 4567230 5102077 15.358541616268 17.184593633591 1842 1308 1308 2409336 3151411488
672	177500278 64254 4567230 5102077 15.358541616268 17.184593633591 1842 15457 17298 30167355 494586676333
676	177564532 62 4761068 5054925 16.020161463957 17.020499426321 2 1 1 2 2
680	177564594 64855 4566956 5102111 15.358044654888 17.184808622464 1914 64 1346 2573680 3464009184
681	177629449 64948 4567166 5102042 15.358432336268 17.184459946638 1917 64 1346 2572590 3462213852
682	177694397 64948 4567166 5102042 15.358432336268 17.184459946638 1917 64 1346 2572590 3462213852
685	177759345 64861 4566918 5102103 15.357936334888 17.184700302464 1914 64 1346 2573680 3464009184
689	177824206 64861 4566917 5102102 15.357936334888 17.184700302464 1914 28 1328 2539192 3371974176
690	177889067 64948 4567167 5102043 15.358432336268 17.184459946638 1917 28 1328 2537976 3370213728
692	177954015 64756 4567170 5102046 15.358432336268 17.184459946638 1911 1300 1300 2484300 3229590000
693	178018771 857 4569004 5093023 15.363567217714 17.151958063572 20 9256000 12972672.585534 219572384.63871 2.4305426505432e+015
694	178019628 64797 4566914 5102099 15.357936334888 17.184700302464 1912 1300 1300 2485600 3231280000
695	178084425 78504 4567170 5102046 15.358432336268 17.184459946638 1911 0.00043368 0.000781007691 0.87558362602799 0.00040586738009556
696	178162929 66667 4567170 5102046 15.358432336268 17.184459946638 1911 15312 17222 31086237 506261385539
697	178229596 64797 4566915 5102100 15.357936334888 17.184700302464 1912 1308 1308 2500896 3271171968
698	178294393 64756 4567169 5102045 15.358432336268 17.184459946638 1911 1308 1308 2499588 3269461104
699	178359149 66667 4567169 5102045 15.358432336268 17.184459946638 1911 15313 17223 31088148 506323559924
703	178425816 62 4758945 5052609 16.012952401862 17.014001082881 2 1 1 2 2
707	178425878 63596 4566801 5102061 15.357433605725 17.184514260678 1876 64 1346 2522532 3395163976
708	178489474 63711 4566890 5102118 15.357758965725 17.184839620678 1880 64 1346 2522788 3395180360
709	178553185 63711 4566890 5102118 15.357758965725 17.184839620678 1880 64 1346 2522788 3395180360
712	178616896 63593 4566752 5102027 15.357325285725 17.184405940678 1876 64 1346 2522532 3395163976
716	178680489 63593 4566751 5102026 15.357325285725 17.184405940678 1876 28 1328 2488728 3304957984
717	178744082 63711 4566891 5102119 15.357758965725 17.184839620678 1880 28 1328 2488840 3304961120
719	178807793 63519 4566894 5102122 15.357758965725 17.184839620678 1874 1300 1300 2436200 3167060000
720	178871312 819 4583097 5091459 15.413242034694 17.146644836177 19 9464000 12521759.196348 204008834.7689 2.2026288452963e+015
721	178872131 63529 4566748 5102023 15.357325285725 17.184405940678 1874 1300 1300 2436200 3167060000
722	178935660 77136 4566894 5102122 15.357758965725 17.184839620678 1874 0.00043368 0.000841569092 0.86246092380199 0.00040191863014931
723	179012796 65393 4566894 5102122 15.357758965725 17.184839620678 1874 15360 17233 30539641 498237697369
724	179078189 63529 4566749 5102024 15.357325285725 17.184405940678 1874 1308 1308 2451192 3206159136
725	179141718 63519 4566893 5102121 15.357758965725 17.184839620678 1874 1308 1308 2451192 3206159136
726	179205237 65393 4566893 5102121 15.357758965725 17.184839620678 1874 15361 17234 30541515 498298778525
795	179270630 181886 4566771 5101968 15.357428309164 17.184285629121 5368 64 1346 7217636 9714445768
796	179452516 181920 4566767 5102017 15.357427549164 17.184394149121 5369 64 1346 7218982 9716257484
797	179634436 181920 4566767 5102017 15.357427549164 17.184394149121 5369 64 1346 7218982 9716257484
800	179816356 181857 4566974 5101924 15.358063210737 17.184177309121 5367 64 1346 7216290 9712634052
806	179998213 64777 4566760 5102054 15.357426589164 17.184502469121 1912 64 1346 2565860 3453155272
807	180062990 64617 4566972 5101921 15.358063210737 17.184177309121 1907 64 1346 2564258 3451327172
808	180127607 64617 4566972 5101921 15.358063210737 17.184177309121 1907 64 1346 2564258 3451327172
811	180192224 64742 4567079 5102020 15.358280050737 17.184394149121 1911 64 1346 2564514 3451343556
817	180256966 56795 4566807 5100929 15.357535869164 17.180422559809 1676 64 1346 2248204 3025590296
818	180313761 56613 4567071 5100862 15.358275512301 17.180097399809 1670 64 1346 2245256 3021950480
819	180370374 56613 4567071 5100862 15.358275512301 17.180097399809 1670 64 1346 2245256 3021950480
822	180426987 56795 4566770 5100920 15.357427549164 17.180314239809 1676 64 1346 2248204 3025590296
828	180483782 60767 4567306 5101690 15.358735417214 17.183207689267 1794 64 1346 2407032 3239372784
829	180544549 60627 4567160 5101595 15.358410257214 17.182882529267 1790 64 1346 2406776 3239356400
830	180605176 60627 4567160 5101595 15.358410257214 17.182882529267 1790 64 1346 2406776 3239356400
833	180665803 60767 4567261 5101656 15.358627097214 17.183099369267 1794 64 1346 2407032 3239372784
839	180726570 121726 4566730 5102029 15.357321414302 17.184457922031 3592 64 1346 4829704 6500453392
840	180848296 121726 4566785 5102068 15.357429934302 17.184566442031 3592 64 1346 4829704 6500453392
841	180970022 121726 4566785 5102068 15.357429934302 17.184566442031 3592 64 1346 4829704 6500453392
844	181091748 121689 4566745 5101984 15.357322374302 17.184349602031 3591 64 1346 4828358 6498641676
850	181213437 61022 4566820 5102092 15.357538254302 17.184674762031 1801 64 1346 2419018 3255670036
851	181274459 60931 4566742 5101982 15.357322374302 17.184349602031 1798 64 1346 2417544 3253850128
852	181335390 60931 4566742 5101982 15.357322374302 17.184349602031 1798 64 1346 2417544 3253850128
855	181396321 61023 4566787 5102070 15.357429934302 17.184566442031 1801 64 1346 2419018 3255670036
861	181457344 60831 4566882 5101819 15.357756814302 17.18390249619 1795 64 1346 2410942 3244799740
862	181518175 60758 4566755 5101784 15.357420776658 17.18357733619 1793 64 1346 2410814 3244791548
863	181578933 60758 4566755 5101784 15.357420776658 17.18357733619 1793 64 1346 2410814 3244791548
866	181639691 60831 4566873 5101810 15.357648494302 17.18379417619 1795 64 1346 2410942 3244799740
872	181700522 190912 4566844 5102130 15.357542025725 17.184917042464 5634 64 1346 7575672 10196362224
873	181891434 190878 4566877 5102106 15.357650545725 17.184731200678 5633 64 1346 7574326 10194550508
874	182082312 190878 4566877 5102106 15.357650545725 17.184731200678 5633 64 1346 7574326 10194550508
877	182273190 190914 4566804 5102114 15.357433705725 17.184808722464 5634 64 1346 7575672 10196362224
883	182464104 62604 4567226 5102073 15.358541516268 17.184593533591 1848 64 1346 2479716 3337205448
884	182526708 62463 4566968 5101953 15.358062837968 17.184268373591 1844 64 1346 2479460 3337189064
885	182589171 62463 4566968 5101953 15.358062837968 17.184268373591 1844 64 1346 2479460 3337189064
888	182651634 62604 4567175 5102051 15.358433196268 17.184485213591 1848 64 1346 2479716 3337205448
894	182714238 64948 4567165 5102041 15.358432236268 17.184459846638 1917 64 1346 2572590 3462213852
895	182779186 64855 4566957 5102112 15.358044754888 17.184808722464 1914 64 1346 2573680 3464009184
896	182844041 64855 4566957 5102112 15.358044754888 17.184808722464 1914 64 1346 2573680 3464009184
899	182908896 64948 4567115 5101989 15.358323916268 17.184351526638 1917 64 1346 2572590 3462213852
905	182973844 63711 4566889 5102117 15.357758865725 17.184839520678 1880 64 1346 2522788 3395180360
906	183037555 63596 4566802 5102062 15.357433705725 17.184514360678 1876 64 1346 2522532 3395163976
907	183101151 63596 4566802 5102062 15.357433705725 17.184514360678 1876 64 1346 2522532 3395163976
910	183164747 63710 4566879 5102108 15.357650545725 17.184731200678 1880 64 1346 2522788 3395180360
