file 55273622 1503884749                                        
version 2
run General-0-20170828-10:45:26-8896
attr configname General
attr datetime 20170828-10:45:26
attr experiment General
attr inifile omnetpp.ini
attr iterationvars ""
attr iterationvarsf ""
attr measurement ""
attr network mec
attr processid 8896
attr repetition 0
attr replication #0
attr resultdir results
attr runnumber 0
attr seedset 0
param **.Core*.numUdpApps 2
param **.Core*.serviceTableType "\"IPv4ServiceTable\""
param **.Core*.udpApp[*].isEdgeNode 1
param **.Core*.udpApp[0].destPort 0
param **.Core*.udpApp[0].enomaAddresses "\"Enoma\""
param **.Core*.udpApp[0].enomaPort 1001
param **.Core*.udpApp[0].localPort 1000
param **.Core*.udpApp[0].messageLength 0B
param **.Core*.udpApp[0].sendInterval 0s
param **.Core*.udpApp[0].typename "\"UDPEdgeApp\""
param **.Core*.udpApp[1].destAddresses "\"\""
param **.Core*.udpApp[1].destPort 0
param **.Core*.udpApp[1].localPort 1001
param **.Core*.udpApp[1].messageLength 0B
param **.Core*.udpApp[1].sendInterval 0s
param **.Core*.udpApp[1].typename "\"UDPEnoma\""
param **.Edge*.numUdpApps 2
param **.Edge*.serviceTableType "\"IPv4ServiceTable\""
param **.Edge*.udpApp[*].isEdgeNode 1
param **.Edge*.udpApp[0].destPort 0
param **.Edge*.udpApp[0].disable_service_interval 0s
param **.Edge*.udpApp[0].enomaAddresses "\"Enoma\""
param **.Edge*.udpApp[0].enomaPort 1001
param **.Edge*.udpApp[0].localPort 1000
param **.Edge*.udpApp[0].messageLength 0B
param **.Edge*.udpApp[0].sendInterval 0s
param **.Edge*.udpApp[0].typename "\"UDPEdgeApp\""
param **.Edge*.udpApp[1].destAddresses "\"\""
param **.Edge*.udpApp[1].destPort 0
param **.Edge*.udpApp[1].localPort 1001
param **.Edge*.udpApp[1].messageLength 0B
param **.Edge*.udpApp[1].sendInterval 0s
param **.Edge*.udpApp[1].typename "\"UDPEnoma\""
param **.Enoma.numUdpApps 1
param **.Enoma.udpApp[*].typename "\"UDPEnoma\""
param **.Enoma.udpApp[0].destPort 1001
param **.Enoma.udpApp[0].isEnoma 1
param **.Enoma.udpApp[0].localPort 1001
param **.Enoma.udpApp[0].messageLength 0B
param **.Enoma.udpApp[0].sendInterval 0s
param **.Enoma.udpApp[0].sendIntervalOptimize 5s
param **.RG*.numUdpApps 2
param **.RG*.serviceTableType "\"IPv4ServiceTable\""
param **.RG*.udpApp[*].isEdgeNode 1
param **.RG*.udpApp[0].destPort 0
param **.RG*.udpApp[0].enomaAddresses "\"Enoma\""
param **.RG*.udpApp[0].enomaPort 1001
param **.RG*.udpApp[0].localPort 1000
param **.RG*.udpApp[0].messageLength 0B
param **.RG*.udpApp[0].sendInterval 0s
param **.RG*.udpApp[0].typename "\"UDPEdgeApp\""
param **.RG*.udpApp[1].destAddresses "\"\""
param **.RG*.udpApp[1].destPort 0
param **.RG*.udpApp[1].localPort 1001
param **.RG*.udpApp[1].messageLength 0B
param **.RG*.udpApp[1].sendInterval 0s
param **.RG*.udpApp[1].typename "\"UDPEnoma\""
param **.SP*.numUdpApps 1
param **.SP*.udpApp[0].destPort 1000
param **.SP*.udpApp[0].enomaAddresses "\"Enoma\""
param **.SP*.udpApp[0].enomaPort 1001
param **.SP*.udpApp[0].isSP 1
param **.SP*.udpApp[0].localPort 1000
param **.SP*.udpApp[0].messageLength 0B
param **.SP*.udpApp[0].sendInterval 0s
param **.SP*.udpApp[0].typename "\"UDPEdgeApp\""
param **.SP[0].udpApp[0].cacheSize 1000
param **.SP[0].udpApp[0].mips 10
param **.SP[0].udpApp[0].size 10
param **.SP[1].udpApp[0].cacheSize 2000
param **.SP[1].udpApp[0].mips 20
param **.SP[1].udpApp[0].size 20
param **.SP[2].udpApp[0].cacheSize 3000
param **.SP[2].udpApp[0].mips 20
param **.SP[2].udpApp[0].size 20
param **.SP[3].udpApp[0].cacheSize 4000
param **.SP[3].udpApp[0].mips 20
param **.SP[3].udpApp[0].size 20
param **.SP[4].udpApp[0].cacheSize 5000
param **.SP[4].udpApp[0].mips 20
param **.SP[4].udpApp[0].size 20
param **.arp.cacheTimeout 1s
param **.autoConfigurator.interfaces "\"wlan0\""
param **.constraintAreaMaxX 600m
param **.constraintAreaMaxY 400m
param **.constraintAreaMaxZ 0m
param **.constraintAreaMinX 0m
param **.constraintAreaMinY 0m
param **.constraintAreaMinZ 0m
param **.displayEnergyStorages true
param **.hasStatus true
param **.mac.address "\"auto\""
param **.mac.maxQueueSize 14
param **.mac.rtsThresholdBytes 3000B
param **.mgmt.accessPointAddress "\"10:00:00:00:00:00\""
param **.mgmt.frameCapacity 10
param **.scenarioManager.script "xmldoc(\"scenario.xml\")"
param **.ue*[*].numUdpApps 1
param **.ue*[*].udpApp[*].typename "\"UDPClientApp\""
param **.ue*[*].udpApp[0].destAddresses "\"SP[0] SP[1] SP[2] SP[3] SP[4]\""
param **.ue*[*].udpApp[0].destPort 1000
param **.ue*[*].udpApp[0].messageLength "1300 bytes"
param **.ue*[*].udpApp[0].sendInterval 1s
param **.ue*[*].udpApp[0].timeSwitchApp 10s
param **.wlan*.bitrate 2Mbps
param **.wlan[*].mac.cwMinBroadcast 31
param **.wlan[*].mac.cwMinData 7
param **.wlan[*].mac.retryLimit 7
param **.wlan[*].radio.receiver.sensitivity -85dBm
param **.wlan[*].radio.receiver.snirThreshold 4dB
param **.wlan[*].radio.transmitter.bandwidth 2MHz
param **.wlan[*].radio.transmitter.bitrate 2Mbps
param **.wlan[*].radio.transmitter.carrierFrequency 2.4GHz
param **.wlan[*].radio.transmitter.headerBitLength 100b
param **.wlan[*].radio.transmitter.power 2mW
param *.Core*.energyConsumer.consumptionInterval 1s
param *.Core*.energyConsumer.consumptionPerMb 0.052
param *.Core*.energyConsumer.consumptionPerMips 0.00019
param *.Core*.energyManagement.nodeShutdownCapacity 0J
param *.Core*.energyManagement.nodeStartCapacity 1000J
param *.Core*.energyManagementType "\"SimpleEpEnergyManagement\""
param *.Core*.energyStorage.nominalCapacity 1000J
param *.Core*.energyStorageType "\"SimpleEpEnergyStorage\""
param *.Edge*.energyConsumer.consumptionInterval 1s
param *.Edge*.energyConsumer.consumptionPerMb 0.052
param *.Edge*.energyConsumer.consumptionPerMips 0.00019
param *.Edge*.energyGenerator.energySinkModule "\"^.energyStorage\""
param *.Edge*.energyGenerator.generationInterval 1s
param *.Edge*.energyGenerator.powerGeneration 50000W
param *.Edge*.energyGenerator.sleepInterval 1s
param *.Edge*.energyGeneratorType "\"AlternatingEpEnergyGenerator\""
param *.Edge*.energyManagement.nodeShutdownCapacity 0J
param *.Edge*.energyManagement.nodeStartCapacity 1000J
param *.Edge*.energyManagementType "\"SimpleEpEnergyManagement\""
param *.Edge*.energyStorage.initialCapacity "uniform(0J, this.nominalCapacity)"
param *.Edge*.energyStorage.nominalCapacity 1000J
param *.Edge*.energyStorageType "\"SimpleEpEnergyStorage\""
param *.RG*.energyConsumer.consumptionInterval 1s
param *.RG*.energyConsumer.consumptionPerMb 0.052
param *.RG*.energyConsumer.consumptionPerMips 0.00019
param *.RG*.energyManagement.nodeShutdownCapacity 0J
param *.RG*.energyManagement.nodeStartCapacity 1000J
param *.RG*.energyManagementType "\"SimpleEpEnergyManagement\""
param *.RG*.energyStorage.nominalCapacity 1000J
param *.RG*.energyStorageType "\"SimpleEpEnergyStorage\""
param *.numHostsE1 15
param *.numHostsE2 0
param *.numHostsE3 0
param *.numServices 5

vector 2  mec.Edge1.energyStorage  residualEnergyCapacity:vector  ETV
attr interpolationmode  linear
attr source  residualEnergyCapacityChanged
attr title  "Residual energy capacity, vector"
vector 3  mec.Edge1.energyGenerator  powerGeneration:vector  ETV
attr interpolationmode  sample-hold
attr source  powerGenerationChanged
attr title  "Power generation, vector"
vector 1  mec.Edge1.energyStorage  powerGeneration:vector  ETV
attr interpolationmode  sample-hold
attr source  powerGenerationChanged
attr title  "Power generation, vector"
vector 48  mec.Edge1.energyConsumer  powerConsumption:vector  ETV
attr interpolationmode  sample-hold
attr source  powerConsumptionChanged
attr title  "Power consumption, vector"
vector 0  mec.Edge1.energyStorage  powerConsumption:vector  ETV
attr interpolationmode  sample-hold
attr source  powerConsumptionChanged
attr title  "Power consumption, vector"
vector 213  mec.RG1.energyStorage  residualEnergyCapacity:vector  ETV
attr interpolationmode  linear
attr source  residualEnergyCapacityChanged
attr title  "Residual energy capacity, vector"
vector 282  mec.RG1.energyConsumer  powerConsumption:vector  ETV
attr interpolationmode  sample-hold
attr source  powerConsumptionChanged
attr title  "Power consumption, vector"
vector 211  mec.RG1.energyStorage  powerConsumption:vector  ETV
attr interpolationmode  sample-hold
attr source  powerConsumptionChanged
attr title  "Power consumption, vector"
vector 285  mec.Core.energyStorage  residualEnergyCapacity:vector  ETV
attr interpolationmode  linear
attr source  residualEnergyCapacityChanged
attr title  "Residual energy capacity, vector"
vector 354  mec.Core.energyConsumer  powerConsumption:vector  ETV
attr interpolationmode  sample-hold
attr source  powerConsumptionChanged
attr title  "Power consumption, vector"
vector 283  mec.Core.energyStorage  powerConsumption:vector  ETV
attr interpolationmode  sample-hold
attr source  powerConsumptionChanged
attr title  "Power consumption, vector"
vector 357  mec.RG2.energyStorage  residualEnergyCapacity:vector  ETV
attr interpolationmode  linear
attr source  residualEnergyCapacityChanged
attr title  "Residual energy capacity, vector"
vector 414  mec.RG2.energyConsumer  powerConsumption:vector  ETV
attr interpolationmode  sample-hold
attr source  powerConsumptionChanged
attr title  "Power consumption, vector"
vector 355  mec.RG2.energyStorage  powerConsumption:vector  ETV
attr interpolationmode  sample-hold
attr source  powerConsumptionChanged
attr title  "Power consumption, vector"
vector 417  mec.Edge2.energyStorage  residualEnergyCapacity:vector  ETV
attr interpolationmode  linear
attr source  residualEnergyCapacityChanged
attr title  "Residual energy capacity, vector"
vector 418  mec.Edge2.energyGenerator  powerGeneration:vector  ETV
attr interpolationmode  sample-hold
attr source  powerGenerationChanged
attr title  "Power generation, vector"
vector 416  mec.Edge2.energyStorage  powerGeneration:vector  ETV
attr interpolationmode  sample-hold
attr source  powerGenerationChanged
attr title  "Power generation, vector"
vector 463  mec.Edge2.energyConsumer  powerConsumption:vector  ETV
attr interpolationmode  sample-hold
attr source  powerConsumptionChanged
attr title  "Power consumption, vector"
vector 415  mec.Edge2.energyStorage  powerConsumption:vector  ETV
attr interpolationmode  sample-hold
attr source  powerConsumptionChanged
attr title  "Power consumption, vector"
vector 466  mec.Edge3.energyStorage  residualEnergyCapacity:vector  ETV
attr interpolationmode  linear
attr source  residualEnergyCapacityChanged
attr title  "Residual energy capacity, vector"
vector 467  mec.Edge3.energyGenerator  powerGeneration:vector  ETV
attr interpolationmode  sample-hold
attr source  powerGenerationChanged
attr title  "Power generation, vector"
vector 465  mec.Edge3.energyStorage  powerGeneration:vector  ETV
attr interpolationmode  sample-hold
attr source  powerGenerationChanged
attr title  "Power generation, vector"
vector 512  mec.Edge3.energyConsumer  powerConsumption:vector  ETV
attr interpolationmode  sample-hold
attr source  powerConsumptionChanged
attr title  "Power consumption, vector"
vector 464  mec.Edge3.energyStorage  powerConsumption:vector  ETV
attr interpolationmode  sample-hold
attr source  powerConsumptionChanged
attr title  "Power consumption, vector"
vector 532  mec.ue1[0].udpApp[0]  sentPk:vector(packetBytes)  ETV
attr interpolationmode  none
attr source  sentPk
attr title  "packets sent, vector(packetBytes)"
vector 559  mec.ue1[1].udpApp[0]  sentPk:vector(packetBytes)  ETV
attr interpolationmode  none
attr source  sentPk
attr title  "packets sent, vector(packetBytes)"
vector 586  mec.ue1[2].udpApp[0]  sentPk:vector(packetBytes)  ETV
attr interpolationmode  none
attr source  sentPk
attr title  "packets sent, vector(packetBytes)"
vector 613  mec.ue1[3].udpApp[0]  sentPk:vector(packetBytes)  ETV
attr interpolationmode  none
attr source  sentPk
attr title  "packets sent, vector(packetBytes)"
vector 640  mec.ue1[4].udpApp[0]  sentPk:vector(packetBytes)  ETV
attr interpolationmode  none
attr source  sentPk
attr title  "packets sent, vector(packetBytes)"
vector 667  mec.ue1[5].udpApp[0]  sentPk:vector(packetBytes)  ETV
attr interpolationmode  none
attr source  sentPk
attr title  "packets sent, vector(packetBytes)"
vector 694  mec.ue1[6].udpApp[0]  sentPk:vector(packetBytes)  ETV
attr interpolationmode  none
attr source  sentPk
attr title  "packets sent, vector(packetBytes)"
vector 721  mec.ue1[7].udpApp[0]  sentPk:vector(packetBytes)  ETV
attr interpolationmode  none
attr source  sentPk
attr title  "packets sent, vector(packetBytes)"
vector 748  mec.ue1[8].udpApp[0]  sentPk:vector(packetBytes)  ETV
attr interpolationmode  none
attr source  sentPk
attr title  "packets sent, vector(packetBytes)"
vector 775  mec.ue1[9].udpApp[0]  sentPk:vector(packetBytes)  ETV
attr interpolationmode  none
attr source  sentPk
attr title  "packets sent, vector(packetBytes)"
vector 802  mec.ue1[10].udpApp[0]  sentPk:vector(packetBytes)  ETV
attr interpolationmode  none
attr source  sentPk
attr title  "packets sent, vector(packetBytes)"
vector 829  mec.ue1[11].udpApp[0]  sentPk:vector(packetBytes)  ETV
attr interpolationmode  none
attr source  sentPk
attr title  "packets sent, vector(packetBytes)"
vector 856  mec.ue1[12].udpApp[0]  sentPk:vector(packetBytes)  ETV
attr interpolationmode  none
attr source  sentPk
attr title  "packets sent, vector(packetBytes)"
vector 883  mec.ue1[13].udpApp[0]  sentPk:vector(packetBytes)  ETV
attr interpolationmode  none
attr source  sentPk
attr title  "packets sent, vector(packetBytes)"
vector 910  mec.ue1[14].udpApp[0]  sentPk:vector(packetBytes)  ETV
attr interpolationmode  none
attr source  sentPk
attr title  "packets sent, vector(packetBytes)"
vector 535  mec.ue1[0].udp  sentPk:vector(packetBytes)  ETV
attr interpolationmode  none
attr source  sentPk
attr title  "packets sent, vector(packetBytes)"
vector 562  mec.ue1[1].udp  sentPk:vector(packetBytes)  ETV
attr interpolationmode  none
attr source  sentPk
attr title  "packets sent, vector(packetBytes)"
vector 589  mec.ue1[2].udp  sentPk:vector(packetBytes)  ETV
attr interpolationmode  none
attr source  sentPk
attr title  "packets sent, vector(packetBytes)"
vector 616  mec.ue1[3].udp  sentPk:vector(packetBytes)  ETV
attr interpolationmode  none
attr source  sentPk
attr title  "packets sent, vector(packetBytes)"
vector 643  mec.ue1[4].udp  sentPk:vector(packetBytes)  ETV
attr interpolationmode  none
attr source  sentPk
attr title  "packets sent, vector(packetBytes)"
vector 670  mec.ue1[5].udp  sentPk:vector(packetBytes)  ETV
attr interpolationmode  none
attr source  sentPk
attr title  "packets sent, vector(packetBytes)"
vector 697  mec.ue1[6].udp  sentPk:vector(packetBytes)  ETV
attr interpolationmode  none
attr source  sentPk
attr title  "packets sent, vector(packetBytes)"
vector 724  mec.ue1[7].udp  sentPk:vector(packetBytes)  ETV
attr interpolationmode  none
attr source  sentPk
attr title  "packets sent, vector(packetBytes)"
vector 751  mec.ue1[8].udp  sentPk:vector(packetBytes)  ETV
attr interpolationmode  none
attr source  sentPk
attr title  "packets sent, vector(packetBytes)"
vector 778  mec.ue1[9].udp  sentPk:vector(packetBytes)  ETV
attr interpolationmode  none
attr source  sentPk
attr title  "packets sent, vector(packetBytes)"
vector 805  mec.ue1[10].udp  sentPk:vector(packetBytes)  ETV
attr interpolationmode  none
attr source  sentPk
attr title  "packets sent, vector(packetBytes)"
vector 832  mec.ue1[11].udp  sentPk:vector(packetBytes)  ETV
attr interpolationmode  none
attr source  sentPk
attr title  "packets sent, vector(packetBytes)"
vector 859  mec.ue1[12].udp  sentPk:vector(packetBytes)  ETV
attr interpolationmode  none
attr source  sentPk
attr title  "packets sent, vector(packetBytes)"
vector 886  mec.ue1[13].udp  sentPk:vector(packetBytes)  ETV
attr interpolationmode  none
attr source  sentPk
attr title  "packets sent, vector(packetBytes)"
vector 913  mec.ue1[14].udp  sentPk:vector(packetBytes)  ETV
attr interpolationmode  none
attr source  sentPk
attr title  "packets sent, vector(packetBytes)"
vector 513  mec.ue1[0].networkLayer.arp  sentReq:vector  ETV
attr title  "ARP request sent, vector"
vector 540  mec.ue1[1].networkLayer.arp  sentReq:vector  ETV
attr title  "ARP request sent, vector"
vector 567  mec.ue1[2].networkLayer.arp  sentReq:vector  ETV
attr title  "ARP request sent, vector"
vector 594  mec.ue1[3].networkLayer.arp  sentReq:vector  ETV
attr title  "ARP request sent, vector"
vector 621  mec.ue1[4].networkLayer.arp  sentReq:vector  ETV
attr title  "ARP request sent, vector"
vector 648  mec.ue1[5].networkLayer.arp  sentReq:vector  ETV
attr title  "ARP request sent, vector"
vector 675  mec.ue1[6].networkLayer.arp  sentReq:vector  ETV
attr title  "ARP request sent, vector"
vector 702  mec.ue1[7].networkLayer.arp  sentReq:vector  ETV
attr title  "ARP request sent, vector"
vector 729  mec.ue1[8].networkLayer.arp  sentReq:vector  ETV
attr title  "ARP request sent, vector"
vector 756  mec.ue1[9].networkLayer.arp  sentReq:vector  ETV
attr title  "ARP request sent, vector"
vector 783  mec.ue1[10].networkLayer.arp  sentReq:vector  ETV
attr title  "ARP request sent, vector"
vector 810  mec.ue1[11].networkLayer.arp  sentReq:vector  ETV
attr title  "ARP request sent, vector"
vector 837  mec.ue1[12].networkLayer.arp  sentReq:vector  ETV
attr title  "ARP request sent, vector"
vector 864  mec.ue1[13].networkLayer.arp  sentReq:vector  ETV
attr title  "ARP request sent, vector"
vector 891  mec.ue1[14].networkLayer.arp  sentReq:vector  ETV
attr title  "ARP request sent, vector"
vector 527  mec.ue1[0].eth[0].encap  encapPk:vector(packetBytes)  ETV
attr interpolationmode  none
attr source  encapPk
attr title  "packets encapsulated, vector(packetBytes)"
vector 554  mec.ue1[1].eth[0].encap  encapPk:vector(packetBytes)  ETV
attr interpolationmode  none
attr source  encapPk
attr title  "packets encapsulated, vector(packetBytes)"
vector 581  mec.ue1[2].eth[0].encap  encapPk:vector(packetBytes)  ETV
attr interpolationmode  none
attr source  encapPk
attr title  "packets encapsulated, vector(packetBytes)"
vector 608  mec.ue1[3].eth[0].encap  encapPk:vector(packetBytes)  ETV
attr interpolationmode  none
attr source  encapPk
attr title  "packets encapsulated, vector(packetBytes)"
vector 635  mec.ue1[4].eth[0].encap  encapPk:vector(packetBytes)  ETV
attr interpolationmode  none
attr source  encapPk
attr title  "packets encapsulated, vector(packetBytes)"
vector 662  mec.ue1[5].eth[0].encap  encapPk:vector(packetBytes)  ETV
attr interpolationmode  none
attr source  encapPk
attr title  "packets encapsulated, vector(packetBytes)"
vector 689  mec.ue1[6].eth[0].encap  encapPk:vector(packetBytes)  ETV
attr interpolationmode  none
attr source  encapPk
attr title  "packets encapsulated, vector(packetBytes)"
vector 716  mec.ue1[7].eth[0].encap  encapPk:vector(packetBytes)  ETV
attr interpolationmode  none
attr source  encapPk
attr title  "packets encapsulated, vector(packetBytes)"
vector 743  mec.ue1[8].eth[0].encap  encapPk:vector(packetBytes)  ETV
attr interpolationmode  none
attr source  encapPk
attr title  "packets encapsulated, vector(packetBytes)"
vector 770  mec.ue1[9].eth[0].encap  encapPk:vector(packetBytes)  ETV
attr interpolationmode  none
attr source  encapPk
attr title  "packets encapsulated, vector(packetBytes)"
vector 797  mec.ue1[10].eth[0].encap  encapPk:vector(packetBytes)  ETV
attr interpolationmode  none
attr source  encapPk
attr title  "packets encapsulated, vector(packetBytes)"
vector 824  mec.ue1[11].eth[0].encap  encapPk:vector(packetBytes)  ETV
attr interpolationmode  none
attr source  encapPk
attr title  "packets encapsulated, vector(packetBytes)"
vector 851  mec.ue1[12].eth[0].encap  encapPk:vector(packetBytes)  ETV
attr interpolationmode  none
attr source  encapPk
attr title  "packets encapsulated, vector(packetBytes)"
vector 878  mec.ue1[13].eth[0].encap  encapPk:vector(packetBytes)  ETV
attr interpolationmode  none
attr source  encapPk
attr title  "packets encapsulated, vector(packetBytes)"
vector 905  mec.ue1[14].eth[0].encap  encapPk:vector(packetBytes)  ETV
attr interpolationmode  none
attr source  encapPk
attr title  "packets encapsulated, vector(packetBytes)"
vector 523  mec.ue1[0].eth[0].mac  rxPkFromHL:vector(packetBytes)  ETV
attr interpolationmode  none
attr source  rxPkFromHL
attr title  "packet bytes from higher layer, vector(packetBytes)"
vector 550  mec.ue1[1].eth[0].mac  rxPkFromHL:vector(packetBytes)  ETV
attr interpolationmode  none
attr source  rxPkFromHL
attr title  "packet bytes from higher layer, vector(packetBytes)"
vector 577  mec.ue1[2].eth[0].mac  rxPkFromHL:vector(packetBytes)  ETV
attr interpolationmode  none
attr source  rxPkFromHL
attr title  "packet bytes from higher layer, vector(packetBytes)"
vector 604  mec.ue1[3].eth[0].mac  rxPkFromHL:vector(packetBytes)  ETV
attr interpolationmode  none
attr source  rxPkFromHL
attr title  "packet bytes from higher layer, vector(packetBytes)"
vector 631  mec.ue1[4].eth[0].mac  rxPkFromHL:vector(packetBytes)  ETV
attr interpolationmode  none
attr source  rxPkFromHL
attr title  "packet bytes from higher layer, vector(packetBytes)"
vector 658  mec.ue1[5].eth[0].mac  rxPkFromHL:vector(packetBytes)  ETV
attr interpolationmode  none
attr source  rxPkFromHL
attr title  "packet bytes from higher layer, vector(packetBytes)"
vector 685  mec.ue1[6].eth[0].mac  rxPkFromHL:vector(packetBytes)  ETV
attr interpolationmode  none
attr source  rxPkFromHL
attr title  "packet bytes from higher layer, vector(packetBytes)"
vector 712  mec.ue1[7].eth[0].mac  rxPkFromHL:vector(packetBytes)  ETV
attr interpolationmode  none
attr source  rxPkFromHL
attr title  "packet bytes from higher layer, vector(packetBytes)"
vector 739  mec.ue1[8].eth[0].mac  rxPkFromHL:vector(packetBytes)  ETV
attr interpolationmode  none
attr source  rxPkFromHL
attr title  "packet bytes from higher layer, vector(packetBytes)"
vector 766  mec.ue1[9].eth[0].mac  rxPkFromHL:vector(packetBytes)  ETV
attr interpolationmode  none
attr source  rxPkFromHL
attr title  "packet bytes from higher layer, vector(packetBytes)"
vector 793  mec.ue1[10].eth[0].mac  rxPkFromHL:vector(packetBytes)  ETV
attr interpolationmode  none
attr source  rxPkFromHL
attr title  "packet bytes from higher layer, vector(packetBytes)"
vector 820  mec.ue1[11].eth[0].mac  rxPkFromHL:vector(packetBytes)  ETV
attr interpolationmode  none
attr source  rxPkFromHL
attr title  "packet bytes from higher layer, vector(packetBytes)"
vector 847  mec.ue1[12].eth[0].mac  rxPkFromHL:vector(packetBytes)  ETV
attr interpolationmode  none
attr source  rxPkFromHL
attr title  "packet bytes from higher layer, vector(packetBytes)"
vector 874  mec.ue1[13].eth[0].mac  rxPkFromHL:vector(packetBytes)  ETV
attr interpolationmode  none
attr source  rxPkFromHL
attr title  "packet bytes from higher layer, vector(packetBytes)"
vector 901  mec.ue1[14].eth[0].mac  rxPkFromHL:vector(packetBytes)  ETV
attr interpolationmode  none
attr source  rxPkFromHL
attr title  "packet bytes from higher layer, vector(packetBytes)"
vector 518  mec.ue1[0].eth[0].mac  txPk:vector(packetBytes)  ETV
attr interpolationmode  none
attr source  txPk
attr title  "packets transmitted, vector(packetBytes)"
vector 545  mec.ue1[1].eth[0].mac  txPk:vector(packetBytes)  ETV
attr interpolationmode  none
attr source  txPk
attr title  "packets transmitted, vector(packetBytes)"
vector 572  mec.ue1[2].eth[0].mac  txPk:vector(packetBytes)  ETV
attr interpolationmode  none
attr source  txPk
attr title  "packets transmitted, vector(packetBytes)"
vector 599  mec.ue1[3].eth[0].mac  txPk:vector(packetBytes)  ETV
attr interpolationmode  none
attr source  txPk
attr title  "packets transmitted, vector(packetBytes)"
vector 626  mec.ue1[4].eth[0].mac  txPk:vector(packetBytes)  ETV
attr interpolationmode  none
attr source  txPk
attr title  "packets transmitted, vector(packetBytes)"
vector 653  mec.ue1[5].eth[0].mac  txPk:vector(packetBytes)  ETV
attr interpolationmode  none
attr source  txPk
attr title  "packets transmitted, vector(packetBytes)"
vector 680  mec.ue1[6].eth[0].mac  txPk:vector(packetBytes)  ETV
attr interpolationmode  none
attr source  txPk
attr title  "packets transmitted, vector(packetBytes)"
vector 707  mec.ue1[7].eth[0].mac  txPk:vector(packetBytes)  ETV
attr interpolationmode  none
attr source  txPk
attr title  "packets transmitted, vector(packetBytes)"
vector 734  mec.ue1[8].eth[0].mac  txPk:vector(packetBytes)  ETV
attr interpolationmode  none
attr source  txPk
attr title  "packets transmitted, vector(packetBytes)"
vector 761  mec.ue1[9].eth[0].mac  txPk:vector(packetBytes)  ETV
attr interpolationmode  none
attr source  txPk
attr title  "packets transmitted, vector(packetBytes)"
vector 788  mec.ue1[10].eth[0].mac  txPk:vector(packetBytes)  ETV
attr interpolationmode  none
attr source  txPk
attr title  "packets transmitted, vector(packetBytes)"
vector 815  mec.ue1[11].eth[0].mac  txPk:vector(packetBytes)  ETV
attr interpolationmode  none
attr source  txPk
attr title  "packets transmitted, vector(packetBytes)"
vector 842  mec.ue1[12].eth[0].mac  txPk:vector(packetBytes)  ETV
attr interpolationmode  none
attr source  txPk
attr title  "packets transmitted, vector(packetBytes)"
vector 869  mec.ue1[13].eth[0].mac  txPk:vector(packetBytes)  ETV
attr interpolationmode  none
attr source  txPk
attr title  "packets transmitted, vector(packetBytes)"
vector 896  mec.ue1[14].eth[0].mac  txPk:vector(packetBytes)  ETV
attr interpolationmode  none
attr source  txPk
attr title  "packets transmitted, vector(packetBytes)"
vector 996  mec.sw1.eth[1].mac  rxPkOk:vector(packetBytes)  ETV
attr interpolationmode  none
attr source  rxPkOk
attr title  "packets received OK, vector(packetBytes)"
vector 997  mec.sw1.eth[1].mac  passedUpPk:vector(packetBytes)  ETV
attr interpolationmode  none
attr source  packetSentToUpper
attr title  "packets passed to higher layer, vector(packetBytes)"
vector 1007  mec.sw1.eth[2].mac  rxPkOk:vector(packetBytes)  ETV
attr interpolationmode  none
attr source  rxPkOk
attr title  "packets received OK, vector(packetBytes)"
vector 1008  mec.sw1.eth[2].mac  passedUpPk:vector(packetBytes)  ETV
attr interpolationmode  none
attr source  packetSentToUpper
attr title  "packets passed to higher layer, vector(packetBytes)"
vector 1018  mec.sw1.eth[3].mac  rxPkOk:vector(packetBytes)  ETV
attr interpolationmode  none
attr source  rxPkOk
attr title  "packets received OK, vector(packetBytes)"
vector 1019  mec.sw1.eth[3].mac  passedUpPk:vector(packetBytes)  ETV
attr interpolationmode  none
attr source  packetSentToUpper
attr title  "packets passed to higher layer, vector(packetBytes)"
vector 1029  mec.sw1.eth[4].mac  rxPkOk:vector(packetBytes)  ETV
attr interpolationmode  none
attr source  rxPkOk
attr title  "packets received OK, vector(packetBytes)"
vector 1030  mec.sw1.eth[4].mac  passedUpPk:vector(packetBytes)  ETV
attr interpolationmode  none
attr source  packetSentToUpper
attr title  "packets passed to higher layer, vector(packetBytes)"
vector 1040  mec.sw1.eth[5].mac  rxPkOk:vector(packetBytes)  ETV
attr interpolationmode  none
attr source  rxPkOk
attr title  "packets received OK, vector(packetBytes)"
vector 1041  mec.sw1.eth[5].mac  passedUpPk:vector(packetBytes)  ETV
attr interpolationmode  none
attr source  packetSentToUpper
attr title  "packets passed to higher layer, vector(packetBytes)"
vector 1051  mec.sw1.eth[6].mac  rxPkOk:vector(packetBytes)  ETV
attr interpolationmode  none
attr source  rxPkOk
attr title  "packets received OK, vector(packetBytes)"
vector 1052  mec.sw1.eth[6].mac  passedUpPk:vector(packetBytes)  ETV
attr interpolationmode  none
attr source  packetSentToUpper
attr title  "packets passed to higher layer, vector(packetBytes)"
vector 1062  mec.sw1.eth[7].mac  rxPkOk:vector(packetBytes)  ETV
attr interpolationmode  none
attr source  rxPkOk
attr title  "packets received OK, vector(packetBytes)"
vector 1063  mec.sw1.eth[7].mac  passedUpPk:vector(packetBytes)  ETV
attr interpolationmode  none
attr source  packetSentToUpper
attr title  "packets passed to higher layer, vector(packetBytes)"
vector 1073  mec.sw1.eth[8].mac  rxPkOk:vector(packetBytes)  ETV
attr interpolationmode  none
attr source  rxPkOk
attr title  "packets received OK, vector(packetBytes)"
vector 1074  mec.sw1.eth[8].mac  passedUpPk:vector(packetBytes)  ETV
attr interpolationmode  none
attr source  packetSentToUpper
attr title  "packets passed to higher layer, vector(packetBytes)"
vector 1084  mec.sw1.eth[9].mac  rxPkOk:vector(packetBytes)  ETV
attr interpolationmode  none
attr source  rxPkOk
attr title  "packets received OK, vector(packetBytes)"
vector 1085  mec.sw1.eth[9].mac  passedUpPk:vector(packetBytes)  ETV
attr interpolationmode  none
attr source  packetSentToUpper
attr title  "packets passed to higher layer, vector(packetBytes)"
vector 1095  mec.sw1.eth[10].mac  rxPkOk:vector(packetBytes)  ETV
attr interpolationmode  none
attr source  rxPkOk
attr title  "packets received OK, vector(packetBytes)"
vector 1096  mec.sw1.eth[10].mac  passedUpPk:vector(packetBytes)  ETV
attr interpolationmode  none
attr source  packetSentToUpper
attr title  "packets passed to higher layer, vector(packetBytes)"
vector 1106  mec.sw1.eth[11].mac  rxPkOk:vector(packetBytes)  ETV
attr interpolationmode  none
attr source  rxPkOk
attr title  "packets received OK, vector(packetBytes)"
vector 1107  mec.sw1.eth[11].mac  passedUpPk:vector(packetBytes)  ETV
attr interpolationmode  none
attr source  packetSentToUpper
attr title  "packets passed to higher layer, vector(packetBytes)"
vector 1117  mec.sw1.eth[12].mac  rxPkOk:vector(packetBytes)  ETV
attr interpolationmode  none
attr source  rxPkOk
attr title  "packets received OK, vector(packetBytes)"
vector 1118  mec.sw1.eth[12].mac  passedUpPk:vector(packetBytes)  ETV
attr interpolationmode  none
attr source  packetSentToUpper
attr title  "packets passed to higher layer, vector(packetBytes)"
vector 1128  mec.sw1.eth[13].mac  rxPkOk:vector(packetBytes)  ETV
attr interpolationmode  none
attr source  rxPkOk
attr title  "packets received OK, vector(packetBytes)"
vector 1129  mec.sw1.eth[13].mac  passedUpPk:vector(packetBytes)  ETV
attr interpolationmode  none
attr source  packetSentToUpper
attr title  "packets passed to higher layer, vector(packetBytes)"
vector 1139  mec.sw1.eth[14].mac  rxPkOk:vector(packetBytes)  ETV
attr interpolationmode  none
attr source  rxPkOk
attr title  "packets received OK, vector(packetBytes)"
vector 1140  mec.sw1.eth[14].mac  passedUpPk:vector(packetBytes)  ETV
attr interpolationmode  none
attr source  packetSentToUpper
attr title  "packets passed to higher layer, vector(packetBytes)"
vector 1150  mec.sw1.eth[15].mac  rxPkOk:vector(packetBytes)  ETV
attr interpolationmode  none
attr source  rxPkOk
attr title  "packets received OK, vector(packetBytes)"
vector 1151  mec.sw1.eth[15].mac  passedUpPk:vector(packetBytes)  ETV
attr interpolationmode  none
attr source  packetSentToUpper
attr title  "packets passed to higher layer, vector(packetBytes)"
vector 989  mec.sw1.eth[0].mac  rxPkFromHL:vector(packetBytes)  ETV
attr interpolationmode  none
attr source  rxPkFromHL
attr title  "packet bytes from higher layer, vector(packetBytes)"
vector 1011  mec.sw1.eth[2].mac  rxPkFromHL:vector(packetBytes)  ETV
attr interpolationmode  none
attr source  rxPkFromHL
attr title  "packet bytes from higher layer, vector(packetBytes)"
vector 1022  mec.sw1.eth[3].mac  rxPkFromHL:vector(packetBytes)  ETV
attr interpolationmode  none
attr source  rxPkFromHL
attr title  "packet bytes from higher layer, vector(packetBytes)"
vector 1033  mec.sw1.eth[4].mac  rxPkFromHL:vector(packetBytes)  ETV
attr interpolationmode  none
attr source  rxPkFromHL
attr title  "packet bytes from higher layer, vector(packetBytes)"
vector 1044  mec.sw1.eth[5].mac  rxPkFromHL:vector(packetBytes)  ETV
attr interpolationmode  none
attr source  rxPkFromHL
attr title  "packet bytes from higher layer, vector(packetBytes)"
vector 1055  mec.sw1.eth[6].mac  rxPkFromHL:vector(packetBytes)  ETV
attr interpolationmode  none
attr source  rxPkFromHL
attr title  "packet bytes from higher layer, vector(packetBytes)"
vector 1066  mec.sw1.eth[7].mac  rxPkFromHL:vector(packetBytes)  ETV
attr interpolationmode  none
attr source  rxPkFromHL
attr title  "packet bytes from higher layer, vector(packetBytes)"
vector 1077  mec.sw1.eth[8].mac  rxPkFromHL:vector(packetBytes)  ETV
attr interpolationmode  none
attr source  rxPkFromHL
attr title  "packet bytes from higher layer, vector(packetBytes)"
vector 1088  mec.sw1.eth[9].mac  rxPkFromHL:vector(packetBytes)  ETV
attr interpolationmode  none
attr source  rxPkFromHL
attr title  "packet bytes from higher layer, vector(packetBytes)"
vector 1099  mec.sw1.eth[10].mac  rxPkFromHL:vector(packetBytes)  ETV
attr interpolationmode  none
attr source  rxPkFromHL
attr title  "packet bytes from higher layer, vector(packetBytes)"
vector 1110  mec.sw1.eth[11].mac  rxPkFromHL:vector(packetBytes)  ETV
attr interpolationmode  none
attr source  rxPkFromHL
attr title  "packet bytes from higher layer, vector(packetBytes)"
vector 1121  mec.sw1.eth[12].mac  rxPkFromHL:vector(packetBytes)  ETV
attr interpolationmode  none
attr source  rxPkFromHL
attr title  "packet bytes from higher layer, vector(packetBytes)"
vector 1132  mec.sw1.eth[13].mac  rxPkFromHL:vector(packetBytes)  ETV
attr interpolationmode  none
attr source  rxPkFromHL
attr title  "packet bytes from higher layer, vector(packetBytes)"
vector 1143  mec.sw1.eth[14].mac  rxPkFromHL:vector(packetBytes)  ETV
attr interpolationmode  none
attr source  rxPkFromHL
attr title  "packet bytes from higher layer, vector(packetBytes)"
vector 1154  mec.sw1.eth[15].mac  rxPkFromHL:vector(packetBytes)  ETV
attr interpolationmode  none
attr source  rxPkFromHL
attr title  "packet bytes from higher layer, vector(packetBytes)"
vector 1000  mec.sw1.eth[1].mac  rxPkFromHL:vector(packetBytes)  ETV
attr interpolationmode  none
attr source  rxPkFromHL
attr title  "packet bytes from higher layer, vector(packetBytes)"
vector 984  mec.sw1.eth[0].mac  txPk:vector(packetBytes)  ETV
attr interpolationmode  none
attr source  txPk
attr title  "packets transmitted, vector(packetBytes)"
vector 22  mec.Edge1.eth[1].mac  rxPkOk:vector(packetBytes)  ETV
attr interpolationmode  none
attr source  rxPkOk
attr title  "packets received OK, vector(packetBytes)"
vector 23  mec.Edge1.eth[1].mac  passedUpPk:vector(packetBytes)  ETV
attr interpolationmode  none
attr source  packetSentToUpper
attr title  "packets passed to higher layer, vector(packetBytes)"
vector 31  mec.Edge1.eth[1].encap  decapPk:vector(packetBytes)  ETV
attr interpolationmode  none
attr source  decapPk
attr title  "packets decapsulated, vector(packetBytes)"
vector 5  mec.Edge1.networkLayer.arp  sentReply:vector  ETV
attr title  "ARP replies sent, vector"
vector 30  mec.Edge1.eth[1].encap  encapPk:vector(packetBytes)  ETV
attr interpolationmode  none
attr source  encapPk
attr title  "packets encapsulated, vector(packetBytes)"
vector 26  mec.Edge1.eth[1].mac  rxPkFromHL:vector(packetBytes)  ETV
attr interpolationmode  none
attr source  rxPkFromHL
attr title  "packet bytes from higher layer, vector(packetBytes)"
vector 995  mec.sw1.eth[1].mac  txPk:vector(packetBytes)  ETV
attr interpolationmode  none
attr source  txPk
attr title  "packets transmitted, vector(packetBytes)"
vector 1006  mec.sw1.eth[2].mac  txPk:vector(packetBytes)  ETV
attr interpolationmode  none
attr source  txPk
attr title  "packets transmitted, vector(packetBytes)"
vector 1017  mec.sw1.eth[3].mac  txPk:vector(packetBytes)  ETV
attr interpolationmode  none
attr source  txPk
attr title  "packets transmitted, vector(packetBytes)"
vector 1028  mec.sw1.eth[4].mac  txPk:vector(packetBytes)  ETV
attr interpolationmode  none
attr source  txPk
attr title  "packets transmitted, vector(packetBytes)"
vector 1039  mec.sw1.eth[5].mac  txPk:vector(packetBytes)  ETV
attr interpolationmode  none
attr source  txPk
attr title  "packets transmitted, vector(packetBytes)"
vector 1050  mec.sw1.eth[6].mac  txPk:vector(packetBytes)  ETV
attr interpolationmode  none
attr source  txPk
attr title  "packets transmitted, vector(packetBytes)"
vector 1061  mec.sw1.eth[7].mac  txPk:vector(packetBytes)  ETV
attr interpolationmode  none
attr source  txPk
attr title  "packets transmitted, vector(packetBytes)"
vector 1072  mec.sw1.eth[8].mac  txPk:vector(packetBytes)  ETV
attr interpolationmode  none
attr source  txPk
attr title  "packets transmitted, vector(packetBytes)"
vector 1083  mec.sw1.eth[9].mac  txPk:vector(packetBytes)  ETV
attr interpolationmode  none
attr source  txPk
attr title  "packets transmitted, vector(packetBytes)"
vector 1094  mec.sw1.eth[10].mac  txPk:vector(packetBytes)  ETV
attr interpolationmode  none
attr source  txPk
attr title  "packets transmitted, vector(packetBytes)"
vector 1105  mec.sw1.eth[11].mac  txPk:vector(packetBytes)  ETV
attr interpolationmode  none
attr source  txPk
attr title  "packets transmitted, vector(packetBytes)"
vector 1116  mec.sw1.eth[12].mac  txPk:vector(packetBytes)  ETV
attr interpolationmode  none
attr source  txPk
attr title  "packets transmitted, vector(packetBytes)"
vector 1127  mec.sw1.eth[13].mac  txPk:vector(packetBytes)  ETV
attr interpolationmode  none
attr source  txPk
attr title  "packets transmitted, vector(packetBytes)"
vector 1138  mec.sw1.eth[14].mac  txPk:vector(packetBytes)  ETV
attr interpolationmode  none
attr source  txPk
attr title  "packets transmitted, vector(packetBytes)"
vector 1149  mec.sw1.eth[15].mac  txPk:vector(packetBytes)  ETV
attr interpolationmode  none
attr source  txPk
attr title  "packets transmitted, vector(packetBytes)"
vector 519  mec.ue1[0].eth[0].mac  rxPkOk:vector(packetBytes)  ETV
attr interpolationmode  none
attr source  rxPkOk
attr title  "packets received OK, vector(packetBytes)"
vector 520  mec.ue1[0].eth[0].mac  passedUpPk:vector(packetBytes)  ETV
attr interpolationmode  none
attr source  packetSentToUpper
attr title  "packets passed to higher layer, vector(packetBytes)"
vector 546  mec.ue1[1].eth[0].mac  rxPkOk:vector(packetBytes)  ETV
attr interpolationmode  none
attr source  rxPkOk
attr title  "packets received OK, vector(packetBytes)"
vector 547  mec.ue1[1].eth[0].mac  passedUpPk:vector(packetBytes)  ETV
attr interpolationmode  none
attr source  packetSentToUpper
attr title  "packets passed to higher layer, vector(packetBytes)"
vector 573  mec.ue1[2].eth[0].mac  rxPkOk:vector(packetBytes)  ETV
attr interpolationmode  none
attr source  rxPkOk
attr title  "packets received OK, vector(packetBytes)"
vector 574  mec.ue1[2].eth[0].mac  passedUpPk:vector(packetBytes)  ETV
attr interpolationmode  none
attr source  packetSentToUpper
attr title  "packets passed to higher layer, vector(packetBytes)"
vector 600  mec.ue1[3].eth[0].mac  rxPkOk:vector(packetBytes)  ETV
attr interpolationmode  none
attr source  rxPkOk
attr title  "packets received OK, vector(packetBytes)"
vector 601  mec.ue1[3].eth[0].mac  passedUpPk:vector(packetBytes)  ETV
attr interpolationmode  none
attr source  packetSentToUpper
attr title  "packets passed to higher layer, vector(packetBytes)"
vector 627  mec.ue1[4].eth[0].mac  rxPkOk:vector(packetBytes)  ETV
attr interpolationmode  none
attr source  rxPkOk
attr title  "packets received OK, vector(packetBytes)"
vector 628  mec.ue1[4].eth[0].mac  passedUpPk:vector(packetBytes)  ETV
attr interpolationmode  none
attr source  packetSentToUpper
attr title  "packets passed to higher layer, vector(packetBytes)"
vector 654  mec.ue1[5].eth[0].mac  rxPkOk:vector(packetBytes)  ETV
attr interpolationmode  none
attr source  rxPkOk
attr title  "packets received OK, vector(packetBytes)"
vector 655  mec.ue1[5].eth[0].mac  passedUpPk:vector(packetBytes)  ETV
attr interpolationmode  none
attr source  packetSentToUpper
attr title  "packets passed to higher layer, vector(packetBytes)"
vector 681  mec.ue1[6].eth[0].mac  rxPkOk:vector(packetBytes)  ETV
attr interpolationmode  none
attr source  rxPkOk
attr title  "packets received OK, vector(packetBytes)"
vector 682  mec.ue1[6].eth[0].mac  passedUpPk:vector(packetBytes)  ETV
attr interpolationmode  none
attr source  packetSentToUpper
attr title  "packets passed to higher layer, vector(packetBytes)"
vector 708  mec.ue1[7].eth[0].mac  rxPkOk:vector(packetBytes)  ETV
attr interpolationmode  none
attr source  rxPkOk
attr title  "packets received OK, vector(packetBytes)"
vector 709  mec.ue1[7].eth[0].mac  passedUpPk:vector(packetBytes)  ETV
attr interpolationmode  none
attr source  packetSentToUpper
attr title  "packets passed to higher layer, vector(packetBytes)"
vector 735  mec.ue1[8].eth[0].mac  rxPkOk:vector(packetBytes)  ETV
attr interpolationmode  none
attr source  rxPkOk
attr title  "packets received OK, vector(packetBytes)"
vector 736  mec.ue1[8].eth[0].mac  passedUpPk:vector(packetBytes)  ETV
attr interpolationmode  none
attr source  packetSentToUpper
attr title  "packets passed to higher layer, vector(packetBytes)"
vector 762  mec.ue1[9].eth[0].mac  rxPkOk:vector(packetBytes)  ETV
attr interpolationmode  none
attr source  rxPkOk
attr title  "packets received OK, vector(packetBytes)"
vector 763  mec.ue1[9].eth[0].mac  passedUpPk:vector(packetBytes)  ETV
attr interpolationmode  none
attr source  packetSentToUpper
attr title  "packets passed to higher layer, vector(packetBytes)"
vector 789  mec.ue1[10].eth[0].mac  rxPkOk:vector(packetBytes)  ETV
attr interpolationmode  none
attr source  rxPkOk
attr title  "packets received OK, vector(packetBytes)"
vector 790  mec.ue1[10].eth[0].mac  passedUpPk:vector(packetBytes)  ETV
attr interpolationmode  none
attr source  packetSentToUpper
attr title  "packets passed to higher layer, vector(packetBytes)"
vector 816  mec.ue1[11].eth[0].mac  rxPkOk:vector(packetBytes)  ETV
attr interpolationmode  none
attr source  rxPkOk
attr title  "packets received OK, vector(packetBytes)"
vector 817  mec.ue1[11].eth[0].mac  passedUpPk:vector(packetBytes)  ETV
attr interpolationmode  none
attr source  packetSentToUpper
attr title  "packets passed to higher layer, vector(packetBytes)"
vector 843  mec.ue1[12].eth[0].mac  rxPkOk:vector(packetBytes)  ETV
attr interpolationmode  none
attr source  rxPkOk
attr title  "packets received OK, vector(packetBytes)"
vector 844  mec.ue1[12].eth[0].mac  passedUpPk:vector(packetBytes)  ETV
attr interpolationmode  none
attr source  packetSentToUpper
attr title  "packets passed to higher layer, vector(packetBytes)"
vector 870  mec.ue1[13].eth[0].mac  rxPkOk:vector(packetBytes)  ETV
attr interpolationmode  none
attr source  rxPkOk
attr title  "packets received OK, vector(packetBytes)"
vector 871  mec.ue1[13].eth[0].mac  passedUpPk:vector(packetBytes)  ETV
attr interpolationmode  none
attr source  packetSentToUpper
attr title  "packets passed to higher layer, vector(packetBytes)"
vector 897  mec.ue1[14].eth[0].mac  rxPkOk:vector(packetBytes)  ETV
attr interpolationmode  none
attr source  rxPkOk
attr title  "packets received OK, vector(packetBytes)"
vector 898  mec.ue1[14].eth[0].mac  passedUpPk:vector(packetBytes)  ETV
attr interpolationmode  none
attr source  packetSentToUpper
attr title  "packets passed to higher layer, vector(packetBytes)"
vector 528  mec.ue1[0].eth[0].encap  decapPk:vector(packetBytes)  ETV
attr interpolationmode  none
attr source  decapPk
attr title  "packets decapsulated, vector(packetBytes)"
vector 555  mec.ue1[1].eth[0].encap  decapPk:vector(packetBytes)  ETV
attr interpolationmode  none
attr source  decapPk
attr title  "packets decapsulated, vector(packetBytes)"
vector 582  mec.ue1[2].eth[0].encap  decapPk:vector(packetBytes)  ETV
attr interpolationmode  none
attr source  decapPk
attr title  "packets decapsulated, vector(packetBytes)"
vector 609  mec.ue1[3].eth[0].encap  decapPk:vector(packetBytes)  ETV
attr interpolationmode  none
attr source  decapPk
attr title  "packets decapsulated, vector(packetBytes)"
vector 636  mec.ue1[4].eth[0].encap  decapPk:vector(packetBytes)  ETV
attr interpolationmode  none
attr source  decapPk
attr title  "packets decapsulated, vector(packetBytes)"
vector 663  mec.ue1[5].eth[0].encap  decapPk:vector(packetBytes)  ETV
attr interpolationmode  none
attr source  decapPk
attr title  "packets decapsulated, vector(packetBytes)"
vector 690  mec.ue1[6].eth[0].encap  decapPk:vector(packetBytes)  ETV
attr interpolationmode  none
attr source  decapPk
attr title  "packets decapsulated, vector(packetBytes)"
vector 717  mec.ue1[7].eth[0].encap  decapPk:vector(packetBytes)  ETV
attr interpolationmode  none
attr source  decapPk
attr title  "packets decapsulated, vector(packetBytes)"
vector 744  mec.ue1[8].eth[0].encap  decapPk:vector(packetBytes)  ETV
attr interpolationmode  none
attr source  decapPk
attr title  "packets decapsulated, vector(packetBytes)"
vector 771  mec.ue1[9].eth[0].encap  decapPk:vector(packetBytes)  ETV
attr interpolationmode  none
attr source  decapPk
attr title  "packets decapsulated, vector(packetBytes)"
vector 798  mec.ue1[10].eth[0].encap  decapPk:vector(packetBytes)  ETV
attr interpolationmode  none
attr source  decapPk
attr title  "packets decapsulated, vector(packetBytes)"
vector 825  mec.ue1[11].eth[0].encap  decapPk:vector(packetBytes)  ETV
attr interpolationmode  none
attr source  decapPk
attr title  "packets decapsulated, vector(packetBytes)"
vector 852  mec.ue1[12].eth[0].encap  decapPk:vector(packetBytes)  ETV
attr interpolationmode  none
attr source  decapPk
attr title  "packets decapsulated, vector(packetBytes)"
vector 879  mec.ue1[13].eth[0].encap  decapPk:vector(packetBytes)  ETV
attr interpolationmode  none
attr source  decapPk
attr title  "packets decapsulated, vector(packetBytes)"
vector 906  mec.ue1[14].eth[0].encap  decapPk:vector(packetBytes)  ETV
attr interpolationmode  none
attr source  decapPk
attr title  "packets decapsulated, vector(packetBytes)"
vector 21  mec.Edge1.eth[1].mac  txPk:vector(packetBytes)  ETV
attr interpolationmode  none
attr source  txPk
attr title  "packets transmitted, vector(packetBytes)"
vector 985  mec.sw1.eth[0].mac  rxPkOk:vector(packetBytes)  ETV
attr interpolationmode  none
attr source  rxPkOk
attr title  "packets received OK, vector(packetBytes)"
vector 986  mec.sw1.eth[0].mac  passedUpPk:vector(packetBytes)  ETV
attr interpolationmode  none
attr source  packetSentToUpper
attr title  "packets passed to higher layer, vector(packetBytes)"
vector 4  mec.Edge1.networkLayer.arp  sentReq:vector  ETV
attr title  "ARP request sent, vector"
vector 18  mec.Edge1.eth[0].encap  encapPk:vector(packetBytes)  ETV
attr interpolationmode  none
attr source  encapPk
attr title  "packets encapsulated, vector(packetBytes)"
vector 14  mec.Edge1.eth[0].mac  rxPkFromHL:vector(packetBytes)  ETV
attr interpolationmode  none
attr source  rxPkFromHL
attr title  "packet bytes from higher layer, vector(packetBytes)"
vector 9  mec.Edge1.eth[0].mac  txPk:vector(packetBytes)  ETV
attr interpolationmode  none
attr source  txPk
attr title  "packets transmitted, vector(packetBytes)"
vector 220  mec.RG1.eth[0].mac  rxPkOk:vector(packetBytes)  ETV
attr interpolationmode  none
attr source  rxPkOk
attr title  "packets received OK, vector(packetBytes)"
vector 221  mec.RG1.eth[0].mac  passedUpPk:vector(packetBytes)  ETV
attr interpolationmode  none
attr source  packetSentToUpper
attr title  "packets passed to higher layer, vector(packetBytes)"
vector 229  mec.RG1.eth[0].encap  decapPk:vector(packetBytes)  ETV
attr interpolationmode  none
attr source  decapPk
attr title  "packets decapsulated, vector(packetBytes)"
vector 215  mec.RG1.networkLayer.arp  sentReply:vector  ETV
attr title  "ARP replies sent, vector"
vector 228  mec.RG1.eth[0].encap  encapPk:vector(packetBytes)  ETV
attr interpolationmode  none
attr source  encapPk
attr title  "packets encapsulated, vector(packetBytes)"
vector 224  mec.RG1.eth[0].mac  rxPkFromHL:vector(packetBytes)  ETV
attr interpolationmode  none
attr source  rxPkFromHL
attr title  "packet bytes from higher layer, vector(packetBytes)"
vector 219  mec.RG1.eth[0].mac  txPk:vector(packetBytes)  ETV
attr interpolationmode  none
attr source  txPk
attr title  "packets transmitted, vector(packetBytes)"
vector 10  mec.Edge1.eth[0].mac  rxPkOk:vector(packetBytes)  ETV
attr interpolationmode  none
attr source  rxPkOk
attr title  "packets received OK, vector(packetBytes)"
vector 11  mec.Edge1.eth[0].mac  passedUpPk:vector(packetBytes)  ETV
attr interpolationmode  none
attr source  packetSentToUpper
attr title  "packets passed to higher layer, vector(packetBytes)"
vector 19  mec.Edge1.eth[0].encap  decapPk:vector(packetBytes)  ETV
attr interpolationmode  none
attr source  decapPk
attr title  "packets decapsulated, vector(packetBytes)"
vector 214  mec.RG1.networkLayer.arp  sentReq:vector  ETV
attr title  "ARP request sent, vector"
vector 252  mec.RG1.eth[2].encap  encapPk:vector(packetBytes)  ETV
attr interpolationmode  none
attr source  encapPk
attr title  "packets encapsulated, vector(packetBytes)"
vector 248  mec.RG1.eth[2].mac  rxPkFromHL:vector(packetBytes)  ETV
attr interpolationmode  none
attr source  rxPkFromHL
attr title  "packet bytes from higher layer, vector(packetBytes)"
vector 243  mec.RG1.eth[2].mac  txPk:vector(packetBytes)  ETV
attr interpolationmode  none
attr source  txPk
attr title  "packets transmitted, vector(packetBytes)"
vector 316  mec.Core.eth[2].mac  rxPkOk:vector(packetBytes)  ETV
attr interpolationmode  none
attr source  rxPkOk
attr title  "packets received OK, vector(packetBytes)"
vector 317  mec.Core.eth[2].mac  passedUpPk:vector(packetBytes)  ETV
attr interpolationmode  none
attr source  packetSentToUpper
attr title  "packets passed to higher layer, vector(packetBytes)"
vector 325  mec.Core.eth[2].encap  decapPk:vector(packetBytes)  ETV
attr interpolationmode  none
attr source  decapPk
attr title  "packets decapsulated, vector(packetBytes)"
vector 287  mec.Core.networkLayer.arp  sentReply:vector  ETV
attr title  "ARP replies sent, vector"
vector 324  mec.Core.eth[2].encap  encapPk:vector(packetBytes)  ETV
attr interpolationmode  none
attr source  encapPk
attr title  "packets encapsulated, vector(packetBytes)"
vector 320  mec.Core.eth[2].mac  rxPkFromHL:vector(packetBytes)  ETV
attr interpolationmode  none
attr source  rxPkFromHL
attr title  "packet bytes from higher layer, vector(packetBytes)"
vector 315  mec.Core.eth[2].mac  txPk:vector(packetBytes)  ETV
attr interpolationmode  none
attr source  txPk
attr title  "packets transmitted, vector(packetBytes)"
vector 244  mec.RG1.eth[2].mac  rxPkOk:vector(packetBytes)  ETV
attr interpolationmode  none
attr source  rxPkOk
attr title  "packets received OK, vector(packetBytes)"
vector 245  mec.RG1.eth[2].mac  passedUpPk:vector(packetBytes)  ETV
attr interpolationmode  none
attr source  packetSentToUpper
attr title  "packets passed to higher layer, vector(packetBytes)"
vector 253  mec.RG1.eth[2].encap  decapPk:vector(packetBytes)  ETV
attr interpolationmode  none
attr source  decapPk
attr title  "packets decapsulated, vector(packetBytes)"
vector 286  mec.Core.networkLayer.arp  sentReq:vector  ETV
attr title  "ARP request sent, vector"
vector 312  mec.Core.eth[1].encap  encapPk:vector(packetBytes)  ETV
attr interpolationmode  none
attr source  encapPk
attr title  "packets encapsulated, vector(packetBytes)"
vector 308  mec.Core.eth[1].mac  rxPkFromHL:vector(packetBytes)  ETV
attr interpolationmode  none
attr source  rxPkFromHL
attr title  "packet bytes from higher layer, vector(packetBytes)"
vector 303  mec.Core.eth[1].mac  txPk:vector(packetBytes)  ETV
attr interpolationmode  none
attr source  txPk
attr title  "packets transmitted, vector(packetBytes)"
vector 919  mec.Sw.eth[0].mac  rxPkOk:vector(packetBytes)  ETV
attr interpolationmode  none
attr source  rxPkOk
attr title  "packets received OK, vector(packetBytes)"
vector 920  mec.Sw.eth[0].mac  passedUpPk:vector(packetBytes)  ETV
attr interpolationmode  none
attr source  packetSentToUpper
attr title  "packets passed to higher layer, vector(packetBytes)"
vector 934  mec.Sw.eth[1].mac  rxPkFromHL:vector(packetBytes)  ETV
attr interpolationmode  none
attr source  rxPkFromHL
attr title  "packet bytes from higher layer, vector(packetBytes)"
vector 945  mec.Sw.eth[2].mac  rxPkFromHL:vector(packetBytes)  ETV
attr interpolationmode  none
attr source  rxPkFromHL
attr title  "packet bytes from higher layer, vector(packetBytes)"
vector 956  mec.Sw.eth[3].mac  rxPkFromHL:vector(packetBytes)  ETV
attr interpolationmode  none
attr source  rxPkFromHL
attr title  "packet bytes from higher layer, vector(packetBytes)"
vector 967  mec.Sw.eth[4].mac  rxPkFromHL:vector(packetBytes)  ETV
attr interpolationmode  none
attr source  rxPkFromHL
attr title  "packet bytes from higher layer, vector(packetBytes)"
vector 978  mec.Sw.eth[5].mac  rxPkFromHL:vector(packetBytes)  ETV
attr interpolationmode  none
attr source  rxPkFromHL
attr title  "packet bytes from higher layer, vector(packetBytes)"
vector 929  mec.Sw.eth[1].mac  txPk:vector(packetBytes)  ETV
attr interpolationmode  none
attr source  txPk
attr title  "packets transmitted, vector(packetBytes)"
vector 940  mec.Sw.eth[2].mac  txPk:vector(packetBytes)  ETV
attr interpolationmode  none
attr source  txPk
attr title  "packets transmitted, vector(packetBytes)"
vector 951  mec.Sw.eth[3].mac  txPk:vector(packetBytes)  ETV
attr interpolationmode  none
attr source  txPk
attr title  "packets transmitted, vector(packetBytes)"
vector 962  mec.Sw.eth[4].mac  txPk:vector(packetBytes)  ETV
attr interpolationmode  none
attr source  txPk
attr title  "packets transmitted, vector(packetBytes)"
vector 973  mec.Sw.eth[5].mac  txPk:vector(packetBytes)  ETV
attr interpolationmode  none
attr source  txPk
attr title  "packets transmitted, vector(packetBytes)"
vector 55  mec.SP[0].eth[0].mac  rxPkOk:vector(packetBytes)  ETV
attr interpolationmode  none
attr source  rxPkOk
attr title  "packets received OK, vector(packetBytes)"
vector 56  mec.SP[0].eth[0].mac  passedUpPk:vector(packetBytes)  ETV
attr interpolationmode  none
attr source  packetSentToUpper
attr title  "packets passed to higher layer, vector(packetBytes)"
vector 82  mec.SP[1].eth[0].mac  rxPkOk:vector(packetBytes)  ETV
attr interpolationmode  none
attr source  rxPkOk
attr title  "packets received OK, vector(packetBytes)"
vector 83  mec.SP[1].eth[0].mac  passedUpPk:vector(packetBytes)  ETV
attr interpolationmode  none
attr source  packetSentToUpper
attr title  "packets passed to higher layer, vector(packetBytes)"
vector 109  mec.SP[2].eth[0].mac  rxPkOk:vector(packetBytes)  ETV
attr interpolationmode  none
attr source  rxPkOk
attr title  "packets received OK, vector(packetBytes)"
vector 110  mec.SP[2].eth[0].mac  passedUpPk:vector(packetBytes)  ETV
attr interpolationmode  none
attr source  packetSentToUpper
attr title  "packets passed to higher layer, vector(packetBytes)"
vector 136  mec.SP[3].eth[0].mac  rxPkOk:vector(packetBytes)  ETV
attr interpolationmode  none
attr source  rxPkOk
attr title  "packets received OK, vector(packetBytes)"
vector 137  mec.SP[3].eth[0].mac  passedUpPk:vector(packetBytes)  ETV
attr interpolationmode  none
attr source  packetSentToUpper
attr title  "packets passed to higher layer, vector(packetBytes)"
vector 163  mec.SP[4].eth[0].mac  rxPkOk:vector(packetBytes)  ETV
attr interpolationmode  none
attr source  rxPkOk
attr title  "packets received OK, vector(packetBytes)"
vector 164  mec.SP[4].eth[0].mac  passedUpPk:vector(packetBytes)  ETV
attr interpolationmode  none
attr source  packetSentToUpper
attr title  "packets passed to higher layer, vector(packetBytes)"
vector 64  mec.SP[0].eth[0].encap  decapPk:vector(packetBytes)  ETV
attr interpolationmode  none
attr source  decapPk
attr title  "packets decapsulated, vector(packetBytes)"
vector 91  mec.SP[1].eth[0].encap  decapPk:vector(packetBytes)  ETV
attr interpolationmode  none
attr source  decapPk
attr title  "packets decapsulated, vector(packetBytes)"
vector 118  mec.SP[2].eth[0].encap  decapPk:vector(packetBytes)  ETV
attr interpolationmode  none
attr source  decapPk
attr title  "packets decapsulated, vector(packetBytes)"
vector 145  mec.SP[3].eth[0].encap  decapPk:vector(packetBytes)  ETV
attr interpolationmode  none
attr source  decapPk
attr title  "packets decapsulated, vector(packetBytes)"
vector 172  mec.SP[4].eth[0].encap  decapPk:vector(packetBytes)  ETV
attr interpolationmode  none
attr source  decapPk
attr title  "packets decapsulated, vector(packetBytes)"
vector 50  mec.SP[0].networkLayer.arp  sentReply:vector  ETV
attr title  "ARP replies sent, vector"
vector 63  mec.SP[0].eth[0].encap  encapPk:vector(packetBytes)  ETV
attr interpolationmode  none
attr source  encapPk
attr title  "packets encapsulated, vector(packetBytes)"
vector 59  mec.SP[0].eth[0].mac  rxPkFromHL:vector(packetBytes)  ETV
attr interpolationmode  none
attr source  rxPkFromHL
attr title  "packet bytes from higher layer, vector(packetBytes)"
vector 54  mec.SP[0].eth[0].mac  txPk:vector(packetBytes)  ETV
attr interpolationmode  none
attr source  txPk
attr title  "packets transmitted, vector(packetBytes)"
vector 930  mec.Sw.eth[1].mac  rxPkOk:vector(packetBytes)  ETV
attr interpolationmode  none
attr source  rxPkOk
attr title  "packets received OK, vector(packetBytes)"
vector 931  mec.Sw.eth[1].mac  passedUpPk:vector(packetBytes)  ETV
attr interpolationmode  none
attr source  packetSentToUpper
attr title  "packets passed to higher layer, vector(packetBytes)"
vector 923  mec.Sw.eth[0].mac  rxPkFromHL:vector(packetBytes)  ETV
attr interpolationmode  none
attr source  rxPkFromHL
attr title  "packet bytes from higher layer, vector(packetBytes)"
vector 918  mec.Sw.eth[0].mac  txPk:vector(packetBytes)  ETV
attr interpolationmode  none
attr source  txPk
attr title  "packets transmitted, vector(packetBytes)"
vector 304  mec.Core.eth[1].mac  rxPkOk:vector(packetBytes)  ETV
attr interpolationmode  none
attr source  rxPkOk
attr title  "packets received OK, vector(packetBytes)"
vector 305  mec.Core.eth[1].mac  passedUpPk:vector(packetBytes)  ETV
attr interpolationmode  none
attr source  packetSentToUpper
attr title  "packets passed to higher layer, vector(packetBytes)"
vector 313  mec.Core.eth[1].encap  decapPk:vector(packetBytes)  ETV
attr interpolationmode  none
attr source  decapPk
attr title  "packets decapsulated, vector(packetBytes)"
vector 131  mec.SP[3].networkLayer.arp  sentReply:vector  ETV
attr title  "ARP replies sent, vector"
vector 144  mec.SP[3].eth[0].encap  encapPk:vector(packetBytes)  ETV
attr interpolationmode  none
attr source  encapPk
attr title  "packets encapsulated, vector(packetBytes)"
vector 140  mec.SP[3].eth[0].mac  rxPkFromHL:vector(packetBytes)  ETV
attr interpolationmode  none
attr source  rxPkFromHL
attr title  "packet bytes from higher layer, vector(packetBytes)"
vector 135  mec.SP[3].eth[0].mac  txPk:vector(packetBytes)  ETV
attr interpolationmode  none
attr source  txPk
attr title  "packets transmitted, vector(packetBytes)"
vector 963  mec.Sw.eth[4].mac  rxPkOk:vector(packetBytes)  ETV
attr interpolationmode  none
attr source  rxPkOk
attr title  "packets received OK, vector(packetBytes)"
vector 964  mec.Sw.eth[4].mac  passedUpPk:vector(packetBytes)  ETV
attr interpolationmode  none
attr source  packetSentToUpper
attr title  "packets passed to higher layer, vector(packetBytes)"
vector 72  mec.SP[0].udp  rcvdPk:vector(packetBytes)  ETV
attr interpolationmode  none
attr source  rcvdPk
attr title  "packets received, vector(packetBytes)"
vector 73  mec.SP[0].udp  passedUpPk:vector(count)  ETV
attr interpolationmode  none
attr title  "packets passed up, vector(count)"
vector 66  mec.SP[0].udpApp[0]  rcvdPk:vector(packetBytes)  ETV
attr interpolationmode  none
attr source  rcvdPk
attr title  "packets received, vector(packetBytes)"
vector 67  mec.SP[0].udpApp[0]  throughput:vector  ETV
attr source  throughput(rcvdPk)
attr title  "throughput, vector"
attr unit  bps
vector 69  mec.SP[0].udpApp[0]  rcvdPkLifetime:vector  ETV
attr interpolationmode  none
attr source  messageAge(rcvdPk)
attr title  "received packet lifetime, vector"
attr unit  s
vector 70  mec.SP[0].udpApp[0]  rcvdPkSeqNo:vector  ETV
attr interpolationmode  none
attr source  appPkSeqNo(rcvdPk)
attr title  "received packet sequence number, vector"
vector 71  mec.SP[0].udp  sentPk:vector(packetBytes)  ETV
attr interpolationmode  none
attr source  sentPk
attr title  "packets sent, vector(packetBytes)"
vector 153  mec.SP[3].udp  rcvdPk:vector(packetBytes)  ETV
attr interpolationmode  none
attr source  rcvdPk
attr title  "packets received, vector(packetBytes)"
vector 154  mec.SP[3].udp  passedUpPk:vector(count)  ETV
attr interpolationmode  none
attr title  "packets passed up, vector(count)"
vector 147  mec.SP[3].udpApp[0]  rcvdPk:vector(packetBytes)  ETV
attr interpolationmode  none
attr source  rcvdPk
attr title  "packets received, vector(packetBytes)"
vector 148  mec.SP[3].udpApp[0]  throughput:vector  ETV
attr source  throughput(rcvdPk)
attr title  "throughput, vector"
attr unit  bps
vector 150  mec.SP[3].udpApp[0]  rcvdPkLifetime:vector  ETV
attr interpolationmode  none
attr source  messageAge(rcvdPk)
attr title  "received packet lifetime, vector"
attr unit  s
vector 151  mec.SP[3].udpApp[0]  rcvdPkSeqNo:vector  ETV
attr interpolationmode  none
attr source  appPkSeqNo(rcvdPk)
attr title  "received packet sequence number, vector"
vector 152  mec.SP[3].udp  sentPk:vector(packetBytes)  ETV
attr interpolationmode  none
attr source  sentPk
attr title  "packets sent, vector(packetBytes)"
vector 300  mec.Core.eth[0].encap  encapPk:vector(packetBytes)  ETV
attr interpolationmode  none
attr source  encapPk
attr title  "packets encapsulated, vector(packetBytes)"
vector 296  mec.Core.eth[0].mac  rxPkFromHL:vector(packetBytes)  ETV
attr interpolationmode  none
attr source  rxPkFromHL
attr title  "packet bytes from higher layer, vector(packetBytes)"
vector 291  mec.Core.eth[0].mac  txPk:vector(packetBytes)  ETV
attr interpolationmode  none
attr source  txPk
attr title  "packets transmitted, vector(packetBytes)"
vector 190  mec.Enoma.eth[0].mac  rxPkOk:vector(packetBytes)  ETV
attr interpolationmode  none
attr source  rxPkOk
attr title  "packets received OK, vector(packetBytes)"
vector 191  mec.Enoma.eth[0].mac  passedUpPk:vector(packetBytes)  ETV
attr interpolationmode  none
attr source  packetSentToUpper
attr title  "packets passed to higher layer, vector(packetBytes)"
vector 199  mec.Enoma.eth[0].encap  decapPk:vector(packetBytes)  ETV
attr interpolationmode  none
attr source  decapPk
attr title  "packets decapsulated, vector(packetBytes)"
vector 185  mec.Enoma.networkLayer.arp  sentReply:vector  ETV
attr title  "ARP replies sent, vector"
vector 198  mec.Enoma.eth[0].encap  encapPk:vector(packetBytes)  ETV
attr interpolationmode  none
attr source  encapPk
attr title  "packets encapsulated, vector(packetBytes)"
vector 194  mec.Enoma.eth[0].mac  rxPkFromHL:vector(packetBytes)  ETV
attr interpolationmode  none
attr source  rxPkFromHL
attr title  "packet bytes from higher layer, vector(packetBytes)"
vector 189  mec.Enoma.eth[0].mac  txPk:vector(packetBytes)  ETV
attr interpolationmode  none
attr source  txPk
attr title  "packets transmitted, vector(packetBytes)"
vector 292  mec.Core.eth[0].mac  rxPkOk:vector(packetBytes)  ETV
attr interpolationmode  none
attr source  rxPkOk
attr title  "packets received OK, vector(packetBytes)"
vector 293  mec.Core.eth[0].mac  passedUpPk:vector(packetBytes)  ETV
attr interpolationmode  none
attr source  packetSentToUpper
attr title  "packets passed to higher layer, vector(packetBytes)"
vector 301  mec.Core.eth[0].encap  decapPk:vector(packetBytes)  ETV
attr interpolationmode  none
attr source  decapPk
attr title  "packets decapsulated, vector(packetBytes)"
vector 207  mec.Enoma.udp  rcvdPk:vector(packetBytes)  ETV
attr interpolationmode  none
attr source  rcvdPk
attr title  "packets received, vector(packetBytes)"
vector 208  mec.Enoma.udp  passedUpPk:vector(count)  ETV
attr interpolationmode  none
attr title  "packets passed up, vector(count)"
vector 201  mec.Enoma.udpApp[0]  rcvdPk:vector(packetBytes)  ETV
attr interpolationmode  none
attr source  rcvdPk
attr title  "packets received, vector(packetBytes)"
vector 202  mec.Enoma.udpApp[0]  throughput:vector  ETV
attr source  throughput(rcvdPk)
attr title  "throughput, vector"
attr unit  bps
vector 204  mec.Enoma.udpApp[0]  rcvdPkLifetime:vector  ETV
attr interpolationmode  none
attr source  messageAge(rcvdPk)
attr title  "received packet lifetime, vector"
attr unit  s
vector 77  mec.SP[1].networkLayer.arp  sentReply:vector  ETV
attr title  "ARP replies sent, vector"
vector 90  mec.SP[1].eth[0].encap  encapPk:vector(packetBytes)  ETV
attr interpolationmode  none
attr source  encapPk
attr title  "packets encapsulated, vector(packetBytes)"
vector 86  mec.SP[1].eth[0].mac  rxPkFromHL:vector(packetBytes)  ETV
attr interpolationmode  none
attr source  rxPkFromHL
attr title  "packet bytes from higher layer, vector(packetBytes)"
vector 81  mec.SP[1].eth[0].mac  txPk:vector(packetBytes)  ETV
attr interpolationmode  none
attr source  txPk
attr title  "packets transmitted, vector(packetBytes)"
vector 941  mec.Sw.eth[2].mac  rxPkOk:vector(packetBytes)  ETV
attr interpolationmode  none
attr source  rxPkOk
attr title  "packets received OK, vector(packetBytes)"
vector 942  mec.Sw.eth[2].mac  passedUpPk:vector(packetBytes)  ETV
attr interpolationmode  none
attr source  packetSentToUpper
attr title  "packets passed to higher layer, vector(packetBytes)"
vector 104  mec.SP[2].networkLayer.arp  sentReply:vector  ETV
attr title  "ARP replies sent, vector"
vector 117  mec.SP[2].eth[0].encap  encapPk:vector(packetBytes)  ETV
attr interpolationmode  none
attr source  encapPk
attr title  "packets encapsulated, vector(packetBytes)"
vector 113  mec.SP[2].eth[0].mac  rxPkFromHL:vector(packetBytes)  ETV
attr interpolationmode  none
attr source  rxPkFromHL
attr title  "packet bytes from higher layer, vector(packetBytes)"
vector 108  mec.SP[2].eth[0].mac  txPk:vector(packetBytes)  ETV
attr interpolationmode  none
attr source  txPk
attr title  "packets transmitted, vector(packetBytes)"
vector 952  mec.Sw.eth[3].mac  rxPkOk:vector(packetBytes)  ETV
attr interpolationmode  none
attr source  rxPkOk
attr title  "packets received OK, vector(packetBytes)"
vector 953  mec.Sw.eth[3].mac  passedUpPk:vector(packetBytes)  ETV
attr interpolationmode  none
attr source  packetSentToUpper
attr title  "packets passed to higher layer, vector(packetBytes)"
vector 158  mec.SP[4].networkLayer.arp  sentReply:vector  ETV
attr title  "ARP replies sent, vector"
vector 171  mec.SP[4].eth[0].encap  encapPk:vector(packetBytes)  ETV
attr interpolationmode  none
attr source  encapPk
attr title  "packets encapsulated, vector(packetBytes)"
vector 167  mec.SP[4].eth[0].mac  rxPkFromHL:vector(packetBytes)  ETV
attr interpolationmode  none
attr source  rxPkFromHL
attr title  "packet bytes from higher layer, vector(packetBytes)"
vector 162  mec.SP[4].eth[0].mac  txPk:vector(packetBytes)  ETV
attr interpolationmode  none
attr source  txPk
attr title  "packets transmitted, vector(packetBytes)"
vector 974  mec.Sw.eth[5].mac  rxPkOk:vector(packetBytes)  ETV
attr interpolationmode  none
attr source  rxPkOk
attr title  "packets received OK, vector(packetBytes)"
vector 975  mec.Sw.eth[5].mac  passedUpPk:vector(packetBytes)  ETV
attr interpolationmode  none
attr source  packetSentToUpper
attr title  "packets passed to higher layer, vector(packetBytes)"
vector 99  mec.SP[1].udp  rcvdPk:vector(packetBytes)  ETV
attr interpolationmode  none
attr source  rcvdPk
attr title  "packets received, vector(packetBytes)"
vector 100  mec.SP[1].udp  passedUpPk:vector(count)  ETV
attr interpolationmode  none
attr title  "packets passed up, vector(count)"
vector 93  mec.SP[1].udpApp[0]  rcvdPk:vector(packetBytes)  ETV
attr interpolationmode  none
attr source  rcvdPk
attr title  "packets received, vector(packetBytes)"
vector 94  mec.SP[1].udpApp[0]  throughput:vector  ETV
attr source  throughput(rcvdPk)
attr title  "throughput, vector"
attr unit  bps
vector 96  mec.SP[1].udpApp[0]  rcvdPkLifetime:vector  ETV
attr interpolationmode  none
attr source  messageAge(rcvdPk)
attr title  "received packet lifetime, vector"
attr unit  s
vector 97  mec.SP[1].udpApp[0]  rcvdPkSeqNo:vector  ETV
attr interpolationmode  none
attr source  appPkSeqNo(rcvdPk)
attr title  "received packet sequence number, vector"
vector 98  mec.SP[1].udp  sentPk:vector(packetBytes)  ETV
attr interpolationmode  none
attr source  sentPk
attr title  "packets sent, vector(packetBytes)"
vector 536  mec.ue1[0].udp  rcvdPk:vector(packetBytes)  ETV
attr interpolationmode  none
attr source  rcvdPk
attr title  "packets received, vector(packetBytes)"
vector 537  mec.ue1[0].udp  passedUpPk:vector(count)  ETV
attr interpolationmode  none
attr title  "packets passed up, vector(count)"
vector 530  mec.ue1[0].udpApp[0]  rcvdPk:vector(packetBytes)  ETV
attr interpolationmode  none
attr source  rcvdPk
attr title  "packets received, vector(packetBytes)"
vector 531  mec.ue1[0].udpApp[0]  throughput:vector  ETV
attr source  throughput(rcvdPk)
attr title  "throughput, vector"
attr unit  bps
vector 533  mec.ue1[0].udpApp[0]  rcvdPkLifetime:vector  ETV
attr interpolationmode  none
attr source  messageAge(rcvdPk)
attr title  "received packet lifetime, vector"
attr unit  s
vector 534  mec.ue1[0].udpApp[0]  rcvdPkSeqNo:vector  ETV
attr interpolationmode  none
attr source  appPkSeqNo(rcvdPk)
attr title  "received packet sequence number, vector"
vector 563  mec.ue1[1].udp  rcvdPk:vector(packetBytes)  ETV
attr interpolationmode  none
attr source  rcvdPk
attr title  "packets received, vector(packetBytes)"
vector 564  mec.ue1[1].udp  passedUpPk:vector(count)  ETV
attr interpolationmode  none
attr title  "packets passed up, vector(count)"
vector 557  mec.ue1[1].udpApp[0]  rcvdPk:vector(packetBytes)  ETV
attr interpolationmode  none
attr source  rcvdPk
attr title  "packets received, vector(packetBytes)"
vector 558  mec.ue1[1].udpApp[0]  throughput:vector  ETV
attr source  throughput(rcvdPk)
attr title  "throughput, vector"
attr unit  bps
vector 560  mec.ue1[1].udpApp[0]  rcvdPkLifetime:vector  ETV
attr interpolationmode  none
attr source  messageAge(rcvdPk)
attr title  "received packet lifetime, vector"
attr unit  s
vector 561  mec.ue1[1].udpApp[0]  rcvdPkSeqNo:vector  ETV
attr interpolationmode  none
attr source  appPkSeqNo(rcvdPk)
attr title  "received packet sequence number, vector"
vector 126  mec.SP[2].udp  rcvdPk:vector(packetBytes)  ETV
attr interpolationmode  none
attr source  rcvdPk
attr title  "packets received, vector(packetBytes)"
vector 127  mec.SP[2].udp  passedUpPk:vector(count)  ETV
attr interpolationmode  none
attr title  "packets passed up, vector(count)"
vector 120  mec.SP[2].udpApp[0]  rcvdPk:vector(packetBytes)  ETV
attr interpolationmode  none
attr source  rcvdPk
attr title  "packets received, vector(packetBytes)"
vector 121  mec.SP[2].udpApp[0]  throughput:vector  ETV
attr source  throughput(rcvdPk)
attr title  "throughput, vector"
attr unit  bps
vector 123  mec.SP[2].udpApp[0]  rcvdPkLifetime:vector  ETV
attr interpolationmode  none
attr source  messageAge(rcvdPk)
attr title  "received packet lifetime, vector"
attr unit  s
vector 124  mec.SP[2].udpApp[0]  rcvdPkSeqNo:vector  ETV
attr interpolationmode  none
attr source  appPkSeqNo(rcvdPk)
attr title  "received packet sequence number, vector"
vector 125  mec.SP[2].udp  sentPk:vector(packetBytes)  ETV
attr interpolationmode  none
attr source  sentPk
attr title  "packets sent, vector(packetBytes)"
vector 590  mec.ue1[2].udp  rcvdPk:vector(packetBytes)  ETV
attr interpolationmode  none
attr source  rcvdPk
attr title  "packets received, vector(packetBytes)"
vector 591  mec.ue1[2].udp  passedUpPk:vector(count)  ETV
attr interpolationmode  none
attr title  "packets passed up, vector(count)"
vector 584  mec.ue1[2].udpApp[0]  rcvdPk:vector(packetBytes)  ETV
attr interpolationmode  none
attr source  rcvdPk
attr title  "packets received, vector(packetBytes)"
vector 585  mec.ue1[2].udpApp[0]  throughput:vector  ETV
attr source  throughput(rcvdPk)
attr title  "throughput, vector"
attr unit  bps
vector 587  mec.ue1[2].udpApp[0]  rcvdPkLifetime:vector  ETV
attr interpolationmode  none
attr source  messageAge(rcvdPk)
attr title  "received packet lifetime, vector"
attr unit  s
vector 588  mec.ue1[2].udpApp[0]  rcvdPkSeqNo:vector  ETV
attr interpolationmode  none
attr source  appPkSeqNo(rcvdPk)
attr title  "received packet sequence number, vector"
vector 180  mec.SP[4].udp  rcvdPk:vector(packetBytes)  ETV
attr interpolationmode  none
attr source  rcvdPk
attr title  "packets received, vector(packetBytes)"
vector 181  mec.SP[4].udp  passedUpPk:vector(count)  ETV
attr interpolationmode  none
attr title  "packets passed up, vector(count)"
vector 174  mec.SP[4].udpApp[0]  rcvdPk:vector(packetBytes)  ETV
attr interpolationmode  none
attr source  rcvdPk
attr title  "packets received, vector(packetBytes)"
vector 175  mec.SP[4].udpApp[0]  throughput:vector  ETV
attr source  throughput(rcvdPk)
attr title  "throughput, vector"
attr unit  bps
vector 177  mec.SP[4].udpApp[0]  rcvdPkLifetime:vector  ETV
attr interpolationmode  none
attr source  messageAge(rcvdPk)
attr title  "received packet lifetime, vector"
attr unit  s
vector 178  mec.SP[4].udpApp[0]  rcvdPkSeqNo:vector  ETV
attr interpolationmode  none
attr source  appPkSeqNo(rcvdPk)
attr title  "received packet sequence number, vector"
vector 179  mec.SP[4].udp  sentPk:vector(packetBytes)  ETV
attr interpolationmode  none
attr source  sentPk
attr title  "packets sent, vector(packetBytes)"
vector 617  mec.ue1[3].udp  rcvdPk:vector(packetBytes)  ETV
attr interpolationmode  none
attr source  rcvdPk
attr title  "packets received, vector(packetBytes)"
vector 618  mec.ue1[3].udp  passedUpPk:vector(count)  ETV
attr interpolationmode  none
attr title  "packets passed up, vector(count)"
vector 611  mec.ue1[3].udpApp[0]  rcvdPk:vector(packetBytes)  ETV
attr interpolationmode  none
attr source  rcvdPk
attr title  "packets received, vector(packetBytes)"
vector 612  mec.ue1[3].udpApp[0]  throughput:vector  ETV
attr source  throughput(rcvdPk)
attr title  "throughput, vector"
attr unit  bps
vector 614  mec.ue1[3].udpApp[0]  rcvdPkLifetime:vector  ETV
attr interpolationmode  none
attr source  messageAge(rcvdPk)
attr title  "received packet lifetime, vector"
attr unit  s
vector 615  mec.ue1[3].udpApp[0]  rcvdPkSeqNo:vector  ETV
attr interpolationmode  none
attr source  appPkSeqNo(rcvdPk)
attr title  "received packet sequence number, vector"
vector 671  mec.ue1[5].udp  rcvdPk:vector(packetBytes)  ETV
attr interpolationmode  none
attr source  rcvdPk
attr title  "packets received, vector(packetBytes)"
vector 672  mec.ue1[5].udp  passedUpPk:vector(count)  ETV
attr interpolationmode  none
attr title  "packets passed up, vector(count)"
vector 665  mec.ue1[5].udpApp[0]  rcvdPk:vector(packetBytes)  ETV
attr interpolationmode  none
attr source  rcvdPk
attr title  "packets received, vector(packetBytes)"
vector 666  mec.ue1[5].udpApp[0]  throughput:vector  ETV
attr source  throughput(rcvdPk)
attr title  "throughput, vector"
attr unit  bps
vector 668  mec.ue1[5].udpApp[0]  rcvdPkLifetime:vector  ETV
attr interpolationmode  none
attr source  messageAge(rcvdPk)
attr title  "received packet lifetime, vector"
attr unit  s
vector 669  mec.ue1[5].udpApp[0]  rcvdPkSeqNo:vector  ETV
attr interpolationmode  none
attr source  appPkSeqNo(rcvdPk)
attr title  "received packet sequence number, vector"
vector 644  mec.ue1[4].udp  rcvdPk:vector(packetBytes)  ETV
attr interpolationmode  none
attr source  rcvdPk
attr title  "packets received, vector(packetBytes)"
vector 645  mec.ue1[4].udp  passedUpPk:vector(count)  ETV
attr interpolationmode  none
attr title  "packets passed up, vector(count)"
vector 638  mec.ue1[4].udpApp[0]  rcvdPk:vector(packetBytes)  ETV
attr interpolationmode  none
attr source  rcvdPk
attr title  "packets received, vector(packetBytes)"
vector 639  mec.ue1[4].udpApp[0]  throughput:vector  ETV
attr source  throughput(rcvdPk)
attr title  "throughput, vector"
attr unit  bps
vector 641  mec.ue1[4].udpApp[0]  rcvdPkLifetime:vector  ETV
attr interpolationmode  none
attr source  messageAge(rcvdPk)
attr title  "received packet lifetime, vector"
attr unit  s
vector 642  mec.ue1[4].udpApp[0]  rcvdPkSeqNo:vector  ETV
attr interpolationmode  none
attr source  appPkSeqNo(rcvdPk)
attr title  "received packet sequence number, vector"
vector 698  mec.ue1[6].udp  rcvdPk:vector(packetBytes)  ETV
attr interpolationmode  none
attr source  rcvdPk
attr title  "packets received, vector(packetBytes)"
vector 699  mec.ue1[6].udp  passedUpPk:vector(count)  ETV
attr interpolationmode  none
attr title  "packets passed up, vector(count)"
vector 692  mec.ue1[6].udpApp[0]  rcvdPk:vector(packetBytes)  ETV
attr interpolationmode  none
attr source  rcvdPk
attr title  "packets received, vector(packetBytes)"
vector 693  mec.ue1[6].udpApp[0]  throughput:vector  ETV
attr source  throughput(rcvdPk)
attr title  "throughput, vector"
attr unit  bps
vector 695  mec.ue1[6].udpApp[0]  rcvdPkLifetime:vector  ETV
attr interpolationmode  none
attr source  messageAge(rcvdPk)
attr title  "received packet lifetime, vector"
attr unit  s
vector 696  mec.ue1[6].udpApp[0]  rcvdPkSeqNo:vector  ETV
attr interpolationmode  none
attr source  appPkSeqNo(rcvdPk)
attr title  "received packet sequence number, vector"
vector 725  mec.ue1[7].udp  rcvdPk:vector(packetBytes)  ETV
attr interpolationmode  none
attr source  rcvdPk
attr title  "packets received, vector(packetBytes)"
vector 726  mec.ue1[7].udp  passedUpPk:vector(count)  ETV
attr interpolationmode  none
attr title  "packets passed up, vector(count)"
vector 719  mec.ue1[7].udpApp[0]  rcvdPk:vector(packetBytes)  ETV
attr interpolationmode  none
attr source  rcvdPk
attr title  "packets received, vector(packetBytes)"
vector 720  mec.ue1[7].udpApp[0]  throughput:vector  ETV
attr source  throughput(rcvdPk)
attr title  "throughput, vector"
attr unit  bps
vector 722  mec.ue1[7].udpApp[0]  rcvdPkLifetime:vector  ETV
attr interpolationmode  none
attr source  messageAge(rcvdPk)
attr title  "received packet lifetime, vector"
attr unit  s
vector 723  mec.ue1[7].udpApp[0]  rcvdPkSeqNo:vector  ETV
attr interpolationmode  none
attr source  appPkSeqNo(rcvdPk)
attr title  "received packet sequence number, vector"
vector 752  mec.ue1[8].udp  rcvdPk:vector(packetBytes)  ETV
attr interpolationmode  none
attr source  rcvdPk
attr title  "packets received, vector(packetBytes)"
vector 753  mec.ue1[8].udp  passedUpPk:vector(count)  ETV
attr interpolationmode  none
attr title  "packets passed up, vector(count)"
vector 746  mec.ue1[8].udpApp[0]  rcvdPk:vector(packetBytes)  ETV
attr interpolationmode  none
attr source  rcvdPk
attr title  "packets received, vector(packetBytes)"
vector 747  mec.ue1[8].udpApp[0]  throughput:vector  ETV
attr source  throughput(rcvdPk)
attr title  "throughput, vector"
attr unit  bps
vector 749  mec.ue1[8].udpApp[0]  rcvdPkLifetime:vector  ETV
attr interpolationmode  none
attr source  messageAge(rcvdPk)
attr title  "received packet lifetime, vector"
attr unit  s
vector 750  mec.ue1[8].udpApp[0]  rcvdPkSeqNo:vector  ETV
attr interpolationmode  none
attr source  appPkSeqNo(rcvdPk)
attr title  "received packet sequence number, vector"
vector 779  mec.ue1[9].udp  rcvdPk:vector(packetBytes)  ETV
attr interpolationmode  none
attr source  rcvdPk
attr title  "packets received, vector(packetBytes)"
vector 780  mec.ue1[9].udp  passedUpPk:vector(count)  ETV
attr interpolationmode  none
attr title  "packets passed up, vector(count)"
vector 773  mec.ue1[9].udpApp[0]  rcvdPk:vector(packetBytes)  ETV
attr interpolationmode  none
attr source  rcvdPk
attr title  "packets received, vector(packetBytes)"
vector 774  mec.ue1[9].udpApp[0]  throughput:vector  ETV
attr source  throughput(rcvdPk)
attr title  "throughput, vector"
attr unit  bps
[...]
645	45206878 10199 1595150 2247560 811.00097756 1144.00097756 334 811 1144 326485 322244035
648	45217077 2158 1598710 2245345 814 1144 111 1 1 111 111
649	45219235 3185 1596410 2248992 812.00077496 1145.00077496 112 1 1 112 112
653	45222420 17096 1594936 2249021 811.00021508 1145.00078072 558 64 1346 465182 607838268
654	45239516 108130 1594390 2249211 811.00007988 1145.00099352 3677 64 1346 663516 618806072
655	45347646 108130 1594390 2249211 811.00007988 1145.00099352 3677 64 1346 663516 618806072
658	45455776 14090 1594873 2249004 811.00010676 1145.00077496 558 64 1346 465182 607838268
662	45469866 14090 1594860 2249003 811.00010676 1145.00077496 558 28 1328 451124 590975472
663	45483956 108100 1594405 2249094 811.00007988 1145.00088424 3676 28 1328 537128 591657184
665	45592056 10499 1595175 2247585 811.00108684 1144.00108684 334 1300 1300 434200 564460000
666	45602555 72583 1595175 2247585 810.1 1144 3340 0 104000 34736000 3612544000000
667	45675138 7494 1595474 2247881 812 1145 334 1300 1300 434200 564460000
668	45682632 12503 1595175 2247585 811.00108684 1144.00108684 334 0.00098008 0.00251672 0.50987088 0.00094197920928
669	45695135 10309 1595175 2247585 811.00108684 1144.00108684 334 810 1143 326151 321591399
670	45705444 7494 1595489 2247901 812 1145 334 1308 1308 436872 571428576
671	45712938 10499 1595174 2247584 811.00108684 1144.00108684 334 1308 1308 436872 571428576
672	45723437 10310 1595174 2247584 811.00108684 1144.00108684 334 811 1144 326485 322244035
675	45733747 2158 1598711 2245346 814 1144 111 1 1 111 111
676	45735905 3185 1596543 2249125 812.00088424 1145.00088424 112 1 1 112 112
680	45739090 16760 1594937 2249153 811.00021508 1145.00089 558 64 1346 465182 607838268
681	45755850 107908 1594391 2249212 811.00007988 1145.00099352 3677 64 1346 663516 618806072
682	45863758 107908 1594391 2249212 811.00007988 1145.00099352 3677 64 1346 663516 618806072
685	45971666 14090 1594874 2249136 811.00010676 1145.00088424 558 64 1346 465182 607838268
689	45985756 14090 1594861 2249135 811.00010676 1145.00088424 558 28 1328 451124 590975472
690	45999846 107878 1594406 2249095 811.00007988 1145.00088424 3676 28 1328 537128 591657184
692	46107724 10277 1595199 2247610 811.00119612 1144.00119612 334 1300 1300 434200 564460000
693	46118001 72583 1595199 2247610 810.1 1144 3340 0 104000 34736000 3612544000000
694	46190584 7494 1595475 2247882 812 1145 334 1300 1300 434200 564460000
695	46198078 12059 1595199 2247610 811.00119612 1144.00119612 334 0.00108936 0.002626 0.5463704 0.0010574052563584
696	46210137 10087 1595199 2247610 811.00119612 1144.00119612 334 810 1143 326151 321591399
697	46220224 7494 1595490 2247902 812 1145 334 1308 1308 436872 571428576
698	46227718 10277 1595198 2247609 811.00119612 1144.00119612 334 1308 1308 436872 571428576
699	46237995 10088 1595198 2247609 811.00119612 1144.00119612 334 811 1144 326485 322244035
702	46248083 2158 1598712 2245347 814 1144 111 1 1 111 111
703	46250241 3156 1596677 2243312 812.00099352 1142.00099352 111 1 1 111 111
707	46253397 17066 1594938 2248152 811.00021508 1145.00010832 557 64 1346 465118 607834172
708	46270463 108018 1594392 2249213 811.00007988 1145.00099352 3677 64 1346 663516 618806072
709	46378481 108018 1594392 2249213 811.00007988 1145.00099352 3677 64 1346 663516 618806072
712	46486499 14060 1594875 2247955 811.00010676 1145 557 64 1346 465118 607834172
716	46500559 14060 1594862 2247939 811.00010676 1145 557 28 1328 451096 590974688
717	46514619 107988 1594407 2249096 811.00007988 1145.00088424 3676 28 1328 537128 591657184
719	46622607 10387 1595223 2247634 811.0013054 1144.0013054 334 1300 1300 434200 564460000
720	46632994 72583 1595223 2247634 810.1 1144 3340 0 104000 34736000 3612544000000
721	46705577 7494 1595476 2247883 812 1145 334 1300 1300 434200 564460000
722	46713071 12279 1595223 2247634 811.0013054 1144.0013054 334 0.00119864 0.00273528 0.58286992 0.001180808638528
723	46725350 10197 1595223 2247634 811.0013054 1144.0013054 334 810 1143 326151 321591399
724	46735547 7494 1595491 2247903 812 1145 334 1308 1308 436872 571428576
725	46743041 10387 1595222 2247633 811.0013054 1144.0013054 334 1308 1308 436872 571428576
726	46753428 10198 1595222 2247633 811.0013054 1144.0013054 334 811 1144 326485 322244035
729	46763626 2158 1598713 2245348 814 1144 111 1 1 111 111
730	46765784 3045 1596810 2243445 812.0011028 1142.0011028 111 1 1 111 111
734	46768829 17066 1594939 2248153 811.00021508 1145.00010832 557 64 1346 465118 607834172
735	46785895 108130 1594393 2249214 811.00007988 1145.00099352 3677 64 1346 663516 618806072
736	46894025 108130 1594393 2249214 811.00007988 1145.00099352 3677 64 1346 663516 618806072
739	47002155 13949 1594876 2247956 811.00010676 1145 557 64 1346 465118 607834172
743	47016104 13949 1594863 2247940 811.00010676 1145 557 28 1328 451096 590974688
744	47030053 108100 1594408 2249097 811.00007988 1145.00088424 3676 28 1328 537128 591657184
746	47138153 10499 1595247 2247659 811.00141468 1144.00141468 334 1300 1300 434200 564460000
747	47148652 72583 1595247 2247659 810.1 1144 3340 0 104000 34736000 3612544000000
748	47221235 7494 1595477 2247884 812 1145 334 1300 1300 434200 564460000
749	47228729 12503 1595247 2247659 811.00141468 1144.00141468 334 0.00130792 0.00284456 0.61936944 0.0013121893557888
750	47241232 10309 1595247 2247659 811.00141468 1144.00141468 334 810 1143 326151 321591399
751	47251541 7494 1595492 2247904 812 1145 334 1308 1308 436872 571428576
752	47259035 10499 1595246 2247658 811.00141468 1144.00141468 334 1308 1308 436872 571428576
753	47269534 10310 1595246 2247658 811.00141468 1144.00141468 334 811 1144 326485 322244035
756	47279844 2158 1598714 2245349 814 1144 111 1 1 111 111
757	47282002 3156 1596944 2243579 812.00121208 1142.00121208 111 1 1 111 111
761	47285158 17066 1594940 2248154 811.00021508 1145.00010832 557 64 1346 465118 607834172
762	47302224 108019 1594394 2249215 811.00007988 1145.00099352 3677 64 1346 663516 618806072
763	47410243 108019 1594394 2249215 811.00007988 1145.00099352 3677 64 1346 663516 618806072
766	47518262 14060 1594877 2247957 811.00010676 1145 557 64 1346 465118 607834172
770	47532322 14060 1594864 2247941 811.00010676 1145 557 28 1328 451096 590974688
771	47546382 107989 1594409 2249098 811.00007988 1145.00088424 3676 28 1328 537128 591657184
773	47654371 10388 1595271 2247684 811.00152396 1144.00152396 334 1300 1300 434200 564460000
774	47664759 72583 1595271 2247684 810.1 1144 3340 0 104000 34736000 3612544000000
775	47737342 7494 1595478 2247885 812 1145 334 1300 1300 434200 564460000
776	47744836 12281 1595271 2247684 811.00152396 1144.00152396 334 0.0014172 0.00295384 0.65586896 0.0014515474081408
777	47757117 10198 1595271 2247684 811.00152396 1144.00152396 334 810 1143 326151 321591399
778	47767315 7494 1595493 2247905 812 1145 334 1308 1308 436872 571428576
779	47774809 10388 1595270 2247683 811.00152396 1144.00152396 334 1308 1308 436872 571428576
780	47785197 10199 1595270 2247683 811.00152396 1144.00152396 334 811 1144 326485 322244035
783	47795396 2158 1598715 2245350 814 1144 111 1 1 111 111
784	47797554 3156 1597078 2243713 812.00132136 1142.00132136 111 1 1 111 111
788	47800710 17066 1594941 2248155 811.00021508 1145.00010832 557 64 1346 465118 607834172
789	47817776 108130 1594395 2249216 811.00007988 1145.00099352 3677 64 1346 663516 618806072
790	47925906 108130 1594395 2249216 811.00007988 1145.00099352 3677 64 1346 663516 618806072
793	48034036 14060 1594878 2247958 811.00010676 1145 557 64 1346 465118 607834172
797	48048096 14060 1594865 2247942 811.00010676 1145 557 28 1328 451096 590974688
798	48062156 108100 1594410 2249099 811.00007988 1145.00088424 3676 28 1328 537128 591657184
800	48170256 10499 1595295 2247708 811.00163324 1144.00163324 334 1300 1300 434200 564460000
801	48180755 72583 1595295 2247708 810.1 1144 3340 0 104000 34736000 3612544000000
802	48253338 7494 1595479 2247886 812 1145 334 1300 1300 434200 564460000
803	48260832 12503 1595295 2247708 811.00163324 1144.00163324 334 0.00152648 0.00306312 0.69236848 0.001598882795584
804	48273335 10309 1595295 2247708 811.00163324 1144.00163324 334 810 1143 326151 321591399
805	48283644 7494 1595494 2247906 812 1145 334 1308 1308 436872 571428576
806	48291138 10499 1595294 2247707 811.00163324 1144.00163324 334 1308 1308 436872 571428576
807	48301637 10310 1595294 2247707 811.00163324 1144.00163324 334 811 1144 326485 322244035
810	48311947 2158 1598716 2245351 814 1144 111 1 1 111 111
811	48314105 3156 1597211 2243846 812.00143064 1142.00143064 111 1 1 111 111
815	48317261 16955 1594942 2248156 811.00021508 1145.00010832 557 64 1346 465118 607834172
816	48334216 107989 1594396 2249085 811.00007988 1145.00088424 3676 64 1346 663452 618801976
817	48442205 107989 1594396 2249085 811.00007988 1145.00088424 3676 64 1346 663452 618801976
820	48550194 14060 1594879 2247959 811.00010676 1145 557 64 1346 465118 607834172
824	48564254 14060 1594866 2247943 811.00010676 1145 557 28 1328 451096 590974688
825	48578314 107989 1594411 2249100 811.00007988 1145.00088424 3676 28 1328 537128 591657184
827	48686303 10388 1595319 2247733 811.00174252 1144.00174252 334 1300 1300 434200 564460000
828	48696691 72583 1595319 2247733 810.1 1144 3340 0 104000 34736000 3612544000000
829	48769274 7494 1595480 2247887 812 1145 334 1300 1300 434200 564460000
830	48776768 12281 1595319 2247733 811.00174252 1144.00174252 334 0.00163576 0.0031724 0.728868 0.0017541955181184
831	48789049 10198 1595319 2247733 811.00174252 1144.00174252 334 810 1143 326151 321591399
832	48799247 7494 1595495 2247907 812 1145 334 1308 1308 436872 571428576
833	48806741 10388 1595318 2247732 811.00174252 1144.00174252 334 1308 1308 436872 571428576
834	48817129 10199 1595318 2247732 811.00174252 1144.00174252 334 811 1144 326485 322244035
837	48827328 2158 1598717 2245352 814 1144 111 1 1 111 111
838	48829486 3156 1597345 2243980 812.00153992 1142.00153992 111 1 1 111 111
842	48832642 17066 1594943 2248157 811.00021508 1145.00010832 557 64 1346 465118 607834172
843	48849708 107988 1594397 2249086 811.00007988 1145.00088424 3676 64 1346 663452 618801976
844	48957696 107988 1594397 2249086 811.00007988 1145.00088424 3676 64 1346 663452 618801976
847	49065684 14060 1594880 2247960 811.00010676 1145 557 64 1346 465118 607834172
851	49079744 14060 1594867 2247944 811.00010676 1145 557 28 1328 451096 590974688
852	49093804 107988 1594412 2249101 811.00007988 1145.00088424 3676 28 1328 537128 591657184
854	49201792 10387 1595343 2247757 811.0018518 1144.0018518 334 1300 1300 434200 564460000
855	49212179 72583 1595343 2247757 810.1 1144 3340 0 104000 34736000 3612544000000
856	49284762 7494 1595481 2247888 812 1145 334 1300 1300 434200 564460000
857	49292256 12279 1595343 2247757 811.0018518 1144.0018518 334 0.00174504 0.00328168 0.76536752 0.001917485575744
858	49304535 10197 1595343 2247757 811.0018518 1144.0018518 334 810 1143 326151 321591399
859	49314732 7494 1595496 2247908 812 1145 334 1308 1308 436872 571428576
860	49322226 10387 1595342 2247756 811.0018518 1144.0018518 334 1308 1308 436872 571428576
861	49332613 10198 1595342 2247756 811.0018518 1144.0018518 334 811 1144 326485 322244035
864	49342811 2158 1598718 2245353 814 1144 111 1 1 111 111
865	49344969 3045 1597478 2244113 812.0016492 1142.0016492 111 1 1 111 111
869	49348014 17066 1595009 2248158 811.00021912 1145.00010832 557 64 1346 465118 607834172
870	49365080 107988 1594398 2249087 811.00007988 1145.00088424 3676 64 1346 663452 618801976
871	49473068 107988 1594398 2249087 811.00007988 1145.00088424 3676 64 1346 663452 618801976
874	49581056 13837 1594913 2247961 811.0001108 1145 557 64 1346 465118 607834172
878	49594893 13837 1594912 2247945 811.0001108 1145 557 28 1328 451096 590974688
879	49608730 107988 1594413 2249102 811.00007988 1145.00088424 3676 28 1328 537128 591657184
881	49716718 10499 1595367 2247782 811.00196108 1144.00196108 334 1300 1300 434200 564460000
882	49727217 72583 1595367 2247782 810.1 1144 3340 0 104000 34736000 3612544000000
883	49799800 7494 1595482 2247889 812 1145 334 1300 1300 434200 564460000
884	49807294 12503 1595367 2247782 811.00196108 1144.00196108 334 0.00185432 0.00339096 0.80186704 0.0020887529684608
885	49819797 10309 1595367 2247782 811.00196108 1144.00196108 334 810 1143 326151 321591399
886	49830106 7494 1595497 2247909 812 1145 334 1308 1308 436872 571428576
887	49837600 10499 1595366 2247781 811.00196108 1144.00196108 334 1308 1308 436872 571428576
888	49848099 10310 1595366 2247781 811.00196108 1144.00196108 334 811 1144 326485 322244035
891	49858409 2158 1598719 2245354 814 1144 111 1 1 111 111
892	49860567 3156 1597621 2244256 812.00175848 1142.00175848 111 1 1 111 111
896	49863723 17066 1595015 2248159 811.00022584 1145.00010832 557 64 1346 465118 607834172
897	49880789 107989 1594399 2249088 811.00007988 1145.00088424 3676 64 1346 663452 618801976
898	49988778 107989 1594399 2249088 811.00007988 1145.00088424 3676 64 1346 663452 618801976
901	50096767 14060 1594928 2247962 811.00011752 1145 557 64 1346 465118 607834172
905	50110827 14060 1594927 2247946 811.00011752 1145 557 28 1328 451096 590974688
906	50124887 107989 1594414 2249103 811.00007988 1145.00088424 3676 28 1328 537128 591657184
908	50232876 10388 1595380 2247795 811.00207036 1144.00207036 334 1300 1300 434200 564460000
909	50243264 72583 1595380 2247795 810.1 1144 3340 0 104000 34736000 3612544000000
910	50315847 7494 1595483 2247890 812 1145 334 1300 1300 434200 564460000
911	50323341 12281 1595380 2247795 811.00207036 1144.00207036 334 0.0019636 0.00350024 0.83836656 0.0022679976962688
912	50335622 10198 1595380 2247795 811.00207036 1144.00207036 334 810 1143 326151 321591399
913	50345820 7494 1595498 2247910 812 1145 334 1308 1308 436872 571428576
914	50353314 10388 1595379 2247794 811.00207036 1144.00207036 334 1308 1308 436872 571428576
915	50363702 10199 1595379 2247794 811.00207036 1144.00207036 334 811 1144 326485 322244035
984	50373901 254211 1594464 2249159 811.00008554 1145.0009817 8352 64 1346 6967604 9104846952
985	50628112 254224 1594461 2249173 811.00008478 1145.00098766 8353 64 1346 6957412 9090390088
986	50882336 254224 1594461 2249173 811.00008478 1145.00098766 8353 64 1346 6957412 9090390088
989	51136560 255865 1594970 2249156 811.00021518 1145.0008901 8362 64 1346 6977218 9117541252
995	51392425 108212 1594474 2249191 811.0000865 1145.00099342 3676 64 1346 663452 618801976
996	51500637 17096 1594944 2248362 811.00021518 1145.00023442 558 64 1346 465182 607838268
997	51517733 17096 1594944 2248362 811.00021518 1145.00023442 558 64 1346 465182 607838268
1000	51534829 111990 1595036 2249175 811.00043202 1145.00098766 3672 64 1346 663196 618785592
1006	51646819 111777 1594475 2249192 811.0000865 1145.00099342 3676 64 1346 663452 618801976
1007	51758596 17542 1594945 2248494 811.00021518 1145.0003437 558 64 1346 465182 607838268
1008	51776138 17542 1594945 2248494 811.00021518 1145.0003437 558 64 1346 465182 607838268
1011	51793680 111878 1595060 2249176 811.0005413 1145.00098766 3672 64 1346 663196 618785592
1017	51905558 111776 1594476 2249193 811.0000865 1145.00099342 3676 64 1346 663452 618801976
1018	52017334 17654 1594946 2248626 811.00021518 1145.00045298 558 64 1346 465182 607838268
1019	52034988 17654 1594946 2248626 811.00021518 1145.00045298 558 64 1346 465182 607838268
1022	52052642 112101 1595084 2249177 811.00065058 1145.00098766 3672 64 1346 663196 618785592
1028	52164743 111888 1594477 2249194 811.0000865 1145.00099342 3676 64 1346 663452 618801976
1029	52276631 17654 1594947 2248758 811.00021518 1145.00056226 558 64 1346 465182 607838268
1030	52294285 17654 1594947 2248758 811.00021518 1145.00056226 558 64 1346 465182 607838268
1033	52311939 111990 1595108 2249178 811.00075986 1145.00098766 3672 64 1346 663196 618785592
1039	52423929 111777 1594478 2249195 811.0000865 1145.00099342 3676 64 1346 663452 618801976
1040	52535706 17654 1594948 2248890 811.00021518 1145.00067154 558 64 1346 465182 607838268
1041	52553360 17654 1594948 2248890 811.00021518 1145.00067154 558 64 1346 465182 607838268
1044	52571014 112101 1595132 2249179 811.00086914 1145.00098766 3672 64 1346 663196 618785592
1050	52683115 111888 1594479 2249196 811.0000865 1145.00099342 3676 64 1346 663452 618801976
1051	52795003 17654 1594949 2249022 811.00021518 1145.00078082 558 64 1346 465182 607838268
1052	52812657 17654 1594949 2249022 811.00021518 1145.00078082 558 64 1346 465182 607838268
1055	52830311 111990 1595156 2249180 811.00097842 1145.00098766 3672 64 1346 663196 618785592
1061	52942301 111777 1594480 2249197 811.0000865 1145.00099342 3676 64 1346 663452 618801976
1062	53054078 17542 1594950 2249154 811.00021518 1145.0008901 558 64 1346 465182 607838268
1063	53071620 17542 1594950 2249154 811.00021518 1145.0008901 558 64 1346 465182 607838268
1066	53089162 111878 1595180 2249181 811.0010877 1145.00098766 3672 64 1346 663196 618785592
1072	53201040 111776 1594481 2249198 811.0000865 1145.00099342 3676 64 1346 663452 618801976
1073	53312816 17623 1594951 2248167 811.00021518 1145.00010842 557 64 1346 465118 607834172
1074	53330439 17623 1594951 2248167 811.00021518 1145.00010842 557 64 1346 465118 607834172
1077	53348062 112101 1595204 2249182 811.00119698 1145.00098766 3672 64 1346 663196 618785592
1083	53460163 111888 1594482 2249199 811.0000865 1145.00099342 3676 64 1346 663452 618801976
1084	53572051 17623 1594952 2248168 811.00021518 1145.00010842 557 64 1346 465118 607834172
1085	53589674 17623 1594952 2248168 811.00021518 1145.00010842 557 64 1346 465118 607834172
1088	53607297 111990 1595228 2249183 811.00130626 1145.00098766 3672 64 1346 663196 618785592
1094	53719287 111777 1594483 2249200 811.0000865 1145.00099342 3676 64 1346 663452 618801976
1095	53831064 17623 1594953 2248169 811.00021518 1145.00010842 557 64 1346 465118 607834172
1096	53848687 17623 1594953 2248169 811.00021518 1145.00010842 557 64 1346 465118 607834172
1099	53866310 112101 1595252 2249184 811.00141554 1145.00098766 3672 64 1346 663196 618785592
1105	53978411 111888 1594484 2249201 811.0000865 1145.00099342 3676 64 1346 663452 618801976
1106	54090299 17623 1594954 2248170 811.00021518 1145.00010842 557 64 1346 465118 607834172
1107	54107922 17623 1594954 2248170 811.00021518 1145.00010842 557 64 1346 465118 607834172
1110	54125545 112020 1594463 2249185 811.00008478 1145.00098766 3673 64 1346 663260 618789688
1116	54237565 111777 1594485 2249202 811.0000865 1145.00099342 3676 64 1346 663452 618801976
1117	54349342 17512 1594955 2248171 811.00021518 1145.00010842 557 64 1346 465118 607834172
1118	54366854 17512 1594955 2248171 811.00021518 1145.00010842 557 64 1346 465118 607834172
1121	54384366 111907 1594568 2249186 811.0000915 1145.00098766 3673 64 1346 663260 618789688
1127	54496273 111776 1594486 2249203 811.0000865 1145.00099342 3676 64 1346 663452 618801976
1128	54608049 17623 1594956 2248172 811.00021518 1145.00010842 557 64 1346 465118 607834172
1129	54625672 17623 1594956 2248172 811.00021518 1145.00010842 557 64 1346 465118 607834172
1132	54643295 112131 1594673 2249187 811.00009822 1145.00098766 3673 64 1346 663260 618789688
1138	54755426 111776 1594487 2249204 811.0000865 1145.00099342 3676 64 1346 663452 618801976
1139	54867202 17623 1595010 2248173 811.00021922 1145.00010842 557 64 1346 465118 607834172
1140	54884825 17623 1595010 2248173 811.00021922 1145.00010842 557 64 1346 465118 607834172
1143	54902448 112020 1594778 2249188 811.00010494 1145.00098766 3673 64 1346 663260 618789688
1149	55014468 111777 1594488 2249205 811.0000865 1145.00099342 3676 64 1346 663452 618801976
1150	55126245 17623 1595016 2248174 811.00022594 1145.00010842 557 64 1346 465118 607834172
1151	55143868 17623 1595016 2248174 811.00022594 1145.00010842 557 64 1346 465118 607834172
1154	55161491 112131 1594919 2249189 811.00011166 1145.00098766 3673 64 1346 663260 618789688
